geometry optimzed in LAMMPS
_audit_creation_date              2020-11-30 
_audit_creation_method            'lammps2cif' 
_symmetry_space_group_name_H-M    'P1' 
_symmetry_Int_Tables_number       1 
_symmetry_cell_setting            triclinic 
loop_ 
_symmetry_equiv_pos_as_xyz 
  x,y,z 
_cell_length_a                    46.62876443 
_cell_length_b                    39.10935609394985 
_cell_length_c                    19.18680094684152 
_cell_angle_alpha                 90.00665557757813 
_cell_angle_beta                  90.90352102406347 
_cell_angle_gamma                 89.95288297006985 
loop_ 
_atom_site_label 
_atom_site_type_symbol 
_atom_site_fract_x 
_atom_site_fract_y 
_atom_site_fract_z 
_atom_site_charge 
N1          N  0.69812060  0.40584147  0.67098180    -0.26200
N2          N  0.71521248  0.38486151  0.70565732    -0.34100
C3          C  0.74160387  0.39866706  0.70980289     0.02100
C4          C  0.74093077  0.43020412  0.67667037     0.08100
C5          C  0.71286116  0.43377675  0.65287339    -0.04900
H6          H  0.75917561  0.38814973  0.74046445     0.08800
H7          H  0.70291202  0.45667788  0.63242894     0.10000
Cu8        Cu  0.69904167  0.34030290  0.74732098     0.44200
Cu9        Cu  0.65444569  0.39847085  0.66595851     0.42000
Cu10       Cu  0.62088781  0.32175649  0.71970924     0.43900
N11         N  0.68118599  0.29327936  0.72544871    -0.33600
N12         N  0.65443825  0.28704157  0.70481986    -0.27900
C13         C  0.65397931  0.25707831  0.66945526    -0.04000
C14         C  0.68185031  0.24479328  0.66715575     0.08300
C15         C  0.69797066  0.26738245  0.70621332     0.02100
H16         H  0.63507990  0.24574087  0.64566067     0.09700
H17         H  0.72100513  0.26670718  0.71399160     0.08800
N18         N  0.59947377  0.36870110  0.72066110    -0.35100
N19         N  0.61183295  0.39540417  0.69180741    -0.27200
C20         C  0.59535284  0.42292616  0.69977010    -0.02500
C21         C  0.57166812  0.41421086  0.73850184     0.06100
C22         C  0.57484144  0.37922190  0.75067697     0.04200
H23         H  0.60180933  0.44843683  0.68478969     0.09300
H24         H  0.56161296  0.36332277  0.78322126     0.08200
N25         N  0.67853832  0.42641495  0.08979678    -0.26200
N26         N  0.69949216  0.40884301  0.06160749    -0.34100
C27         C  0.72236321  0.42934955  0.05425385     0.02100
C28         C  0.71505048  0.46180999  0.07756563     0.08100
C29         C  0.68693102  0.45897673  0.09795324    -0.04900
H30         H  0.74165239  0.42195318  0.02755112     0.08800
H31         H  0.67270778  0.47976326  0.11069932     0.10000
Cu32       Cu  0.69265261  0.35988006  0.02546315     0.44200
Cu33       Cu  0.63802328  0.40663706  0.10173997     0.42000
Cu34       Cu  0.61747891  0.33002554  0.01809531     0.43900
N35         N  0.67969864  0.31026505  0.04079000    -0.33600
N36         N  0.65294388  0.29958692  0.04708320    -0.27900
C37         C  0.65353049  0.26861541  0.07864861    -0.04000
C38         C  0.68192199  0.26035108  0.09448245     0.08300
C39         C  0.69766273  0.28636560  0.06553607     0.02100
H40         H  0.63479264  0.25337277  0.08959961     0.09700
H41         H  0.72078706  0.28862849  0.06580890     0.08800
N42         N  0.59051530  0.37291303  0.02210993    -0.35100
N43         N  0.59693949  0.39712202  0.06761871    -0.27200
C44         C  0.57825463  0.42276536  0.06117081    -0.02500
C45         C  0.55976801  0.41598707  0.00600631     0.06100
C46         C  0.56800812  0.38377492  0.98225858     0.04200
H47         H  0.58120795  0.44733730  0.08626875     0.09300
H48         H  0.56019250  0.37093630  0.93576308     0.08200
N49         N  0.76474654  0.63421002  0.84834778    -0.35500
N50         N  0.76218002  0.57980813  0.74490160    -0.56100
N51         N  0.76281893  0.52895033  0.85380961    -0.35500
N52         N  0.76391066  0.58211413  0.95684350    -0.56100
C53         C  0.75724333  0.65206894  0.78995151     0.28100
C54         C  0.75769654  0.65313266  0.90515764     0.28100
C55         C  0.75198872  0.51187599  0.79832392     0.28000
C56         C  0.75296311  0.51302802  0.91104366     0.28000
C57         C  0.76824249  0.60660786  0.70350457     0.36700
C58         C  0.76675424  0.55135707  0.70663160     0.36700
C59         C  0.77111559  0.60983161  0.99470828     0.36700
C60         C  0.76937579  0.55470107  0.99766507     0.36700
C61         C  0.74577938  0.68324369  0.80995501    -0.20800
C62         C  0.74596396  0.68386708  0.88234489    -0.20800
C63         C  0.73447153  0.48550729  0.82065712    -0.20800
C64         C  0.73549216  0.48586958  0.89190065    -0.20800
C65         C  0.77746158  0.59497709  0.63916123    -0.21900
C66         C  0.77615256  0.55988497  0.64094232    -0.21900
C67         C  0.78231802  0.59979720  0.05913971    -0.21900
C68         C  0.78068408  0.56470183  0.06140156    -0.21900
C69         C  0.76129247  0.64092640  0.71956109    -0.17200
C70         C  0.76261241  0.64338467  0.97650601    -0.17200
C71         C  0.76061235  0.52157428  0.97985443    -0.17200
C72         C  0.75925923  0.51834275  0.72853701    -0.17200
H73         H  0.73792179  0.70338062  0.77598745     0.15700
H74         H  0.73829106  0.70461783  0.91438704     0.15700
H75         H  0.72200377  0.46785746  0.78929820     0.15700
H76         H  0.72432494  0.46831853  0.92543885     0.15700
H77         H  0.78320362  0.61021900  0.59442772     0.14000
H78         H  0.78075584  0.54270185  0.59833136     0.14000
H79         H  0.78921771  0.61616291  0.10168574     0.14000
H80         H  0.78621088  0.54854337  0.10539465     0.14000
H81         H  0.77623018  0.61139038  0.84933241     0.27200
H82         H  0.77851508  0.54793229  0.85271834     0.27200
N83         N  0.63730606  0.48324807  0.52956418    -0.26200
N84         N  0.66432108  0.48925808  0.51440477    -0.34100
C85         C  0.67768251  0.45934454  0.50283939     0.02100
C86         C  0.65835355  0.43318439  0.51393086     0.08100
C87         C  0.63281911  0.44928230  0.53004979    -0.04900
H88         H  0.70033003  0.45669771  0.49262540     0.08800
H89         H  0.61280959  0.43733084  0.54404029     0.10000
Cu90       Cu  0.68217725  0.53693543  0.53051865     0.44200
Cu91       Cu  0.61055093  0.52116806  0.56585526     0.42000
Cu92       Cu  0.65075417  0.56929632  0.69121556     0.43900
N93         N  0.69437881  0.58206215  0.57863153    -0.33600
N94         N  0.68458727  0.59270556  0.63931375    -0.27900
C95         C  0.69839969  0.62170780  0.65737165    -0.04000
C96         C  0.71746407  0.62969175  0.60519884     0.08300
C97         C  0.71419577  0.60417145  0.55603486     0.02100
H98         H  0.69460739  0.63613520  0.70445647     0.09700
H99         H  0.72605353  0.60127023  0.50837531     0.08800
N100        N  0.60938744  0.55082419  0.70731869    -0.35100
N101        N  0.59293980  0.54160730  0.65399935    -0.27200
C102        C  0.56812672  0.52948701  0.67758955    -0.02500
C103        C  0.56920889  0.52884195  0.74953481     0.06100
C104        C  0.59601271  0.54237839  0.76670581     0.04200
H105        H  0.55339394  0.51466239  0.64558839     0.09300
H106        H  0.60654736  0.54183414  0.81710571     0.08200
N107        N  0.64134000  0.49261007  0.23005583    -0.26200
N108        N  0.66903206  0.49843352  0.23926882    -0.34100
C109        C  0.68178749  0.46934641  0.26151843     0.02100
C110        C  0.66123973  0.44376308  0.26346461     0.08100
C111        C  0.63579040  0.45961392  0.24405381    -0.04900
H112        H  0.70472443  0.46599900  0.26758053     0.08800
H113        H  0.61515020  0.44758236  0.23553156     0.10000
Cu114      Cu  0.68801220  0.54168374  0.19614047     0.44200
Cu115      Cu  0.61420130  0.52630114  0.17860206     0.42000
Cu116      Cu  0.64687237  0.57280215  0.04116686     0.43900
N117        N  0.69979259  0.58316527  0.13414915    -0.33600
N118        N  0.68604409  0.59337519  0.07679500    -0.27900
C119        C  0.69937847  0.62130708  0.05162419    -0.04000
C120        C  0.72229299  0.62924086  0.09553021     0.08300
C121        C  0.72176054  0.60462703  0.14729739     0.02100
H122        H  0.69194811  0.63595953  0.00704810     0.09700
H123        H  0.73602233  0.60288449  0.19218693     0.08800
N124        N  0.60447630  0.55485672  0.03575700    -0.35100
N125        N  0.59173828  0.54290021  0.09162674    -0.27200
C126        C  0.56601376  0.53026560  0.07336423    -0.02500
C127        C  0.56229068  0.53285375  0.00190834     0.06100
C128        C  0.58726964  0.54876143  0.97985098     0.04200
H129        H  0.55369237  0.51381912  0.10697431     0.09300
H130        H  0.59387843  0.55180713  0.92672122     0.08200
N131        N  0.70180614  0.24493151  0.38204018    -0.35500
N132        N  0.67056352  0.28194819  0.49789562    -0.56100
N133        N  0.64496182  0.32220031  0.38664821    -0.35500
N134        N  0.67209173  0.29051843  0.27199162    -0.56100
C135        C  0.70264972  0.22305081  0.43791662     0.28100
C136        C  0.70232243  0.22675055  0.32108306     0.28100
C137        C  0.63171089  0.33338503  0.44397260     0.28000
C138        C  0.63356569  0.33910526  0.33181646     0.28000
C139        C  0.69501941  0.26790607  0.52289872     0.36700
C140        C  0.66948834  0.31405347  0.52385272     0.36700
C141        C  0.69611049  0.27679033  0.24605574     0.36700
C142        C  0.67191917  0.32385883  0.25321191     0.36700
C143        C  0.70379320  0.18998996  0.41179162    -0.20800
C144        C  0.70341992  0.19226198  0.33892664    -0.20800
C145        C  0.60863364  0.35393825  0.42424289    -0.20800
C146        C  0.60997465  0.35778989  0.35301817    -0.20800
C147        C  0.71004196  0.29119705  0.56349897    -0.21900
C148        C  0.69347341  0.32050167  0.56526527    -0.21900
C149        C  0.71174010  0.30144553  0.21164886    -0.21900
C150        C  0.69597985  0.33141134  0.21478654    -0.21900
C151        C  0.70254601  0.23368395  0.51061698    -0.17200
C152        C  0.70258183  0.24178161  0.25145924    -0.17200
C153        C  0.65026756  0.34683180  0.27367160    -0.17200
C154        C  0.64738824  0.33738478  0.50651658    -0.17200
H155        H  0.70424556  0.16655345  0.44171119     0.15700
H156        H  0.70347179  0.17072723  0.30357728     0.15700
H157        H  0.59544133  0.36917962  0.45827435     0.15700
H158        H  0.59782342  0.37617946  0.32242919     0.15700
H159        H  0.73055198  0.28723868  0.58943499     0.14000
H160        H  0.69880371  0.34398344  0.59213087     0.14000
H161        H  0.73223019  0.29802954  0.18689785     0.14000
H162        H  0.70189816  0.35592671  0.19319432     0.14000
H163        H  0.70242079  0.27158507  0.38543453     0.27200
H164        H  0.66566452  0.31220743  0.38748872     0.27200
C165        C  0.55309138  0.50213662  0.78677745    -0.09800
C166        C  0.56695318  0.47064497  0.79163741    -0.03600
C167        C  0.55284902  0.44037182  0.77135354    -0.09800
C168        C  0.52239941  0.44058352  0.76528983     0.11200
C169        C  0.50738947  0.47195337  0.77469188    -0.01600
C170        C  0.52294866  0.50284213  0.78350245     0.11000
C171        C  0.50829777  0.53421401  0.78383989    -0.11600
C172        C  0.47863297  0.53547411  0.77574978    -0.11600
C173        C  0.46266687  0.50538171  0.76743552     0.11000
C174        C  0.47706348  0.47323470  0.76668220    -0.01600
C175        C  0.50664011  0.41131040  0.74611564    -0.11700
C176        C  0.47674810  0.41254525  0.73832290    -0.11700
C177        C  0.46155582  0.44309012  0.74933331     0.11200
C178        C  0.43142289  0.44509426  0.73968953    -0.09800
C179        C  0.41744781  0.47615650  0.75435119    -0.03600
C180        C  0.43269772  0.50684872  0.75673923    -0.09800
H181        H  0.51987287  0.55801633  0.79074149     0.08400
H182        H  0.46811346  0.56017154  0.77672607     0.08400
H183        H  0.51722688  0.38719533  0.73688461     0.08600
H184        H  0.46554654  0.38932345  0.72380366     0.08600
H185        H  0.59019295  0.47078234  0.79539633     0.05100
H186        H  0.39440488  0.47771260  0.74595224     0.05100
N187        N  0.33890136  0.50580143  0.48368621    -0.26200
N188        N  0.31405257  0.51971732  0.46610524    -0.34100
C189        C  0.29606827  0.49506448  0.44311665     0.02100
C190        C  0.31007592  0.46395332  0.44900539     0.08100
C191        C  0.33730131  0.47176229  0.47417544    -0.04900
H192        H  0.27374249  0.49907279  0.42922971     0.08800
H193        H  0.35424202  0.45389478  0.48749667     0.10000
Cu194      Cu  0.30466687  0.56918979  0.49623642     0.44200
Cu195      Cu  0.37064738  0.53350613  0.53505578     0.42000
Cu196      Cu  0.34217749  0.59234702  0.66160197     0.43900
N197        N  0.29535412  0.61197942  0.55522412    -0.33600
N198        N  0.30671136  0.61946931  0.61715505    -0.27900
C199        C  0.29275732  0.64714456  0.64225921    -0.04000
C200        C  0.27220823  0.65759302  0.59317289     0.08300
C201        C  0.27471774  0.63473043  0.53892575     0.02100
H202        H  0.29745483  0.65913395  0.69195617     0.09700
H203        H  0.26171390  0.63394245  0.49174748     0.08800
N204        N  0.38115342  0.56466949  0.67571883    -0.35100
N205        N  0.39340174  0.54948073  0.62231236    -0.27200
C206        C  0.41688136  0.53270264  0.64441634    -0.02500
C207        C  0.41932111  0.53531376  0.71610772     0.06100
C208        C  0.39606092  0.55586113  0.73431454     0.04200
H209        H  0.42786397  0.51398695  0.61292927     0.09300
H210        H  0.38881116  0.56081112  0.78659014     0.08200
N211        N  0.33235872  0.50567605  0.21016270    -0.26200
N212        N  0.30580020  0.51532989  0.22260248    -0.34100
C213        C  0.28982296  0.48732086  0.23508889     0.02100
C214        C  0.30695441  0.45867207  0.22686467     0.08100
C215        C  0.33392677  0.47136949  0.21238304    -0.04900
H216        H  0.26677818  0.48751997  0.24079548     0.08800
H217        H  0.35274459  0.45682292  0.19860662     0.10000
Cu218      Cu  0.29175865  0.56404639  0.19461088     0.44200
Cu219      Cu  0.36219699  0.53798039  0.16672312     0.42000
Cu220      Cu  0.32821082  0.58704855  0.03197795     0.43900
N221        N  0.28213185  0.60745071  0.13548982    -0.33600
N222        N  0.29347597  0.61428566  0.07412994    -0.27900
C223        C  0.28090815  0.64276183  0.04810714    -0.04000
C224        C  0.26115109  0.65472696  0.09573449     0.08300
C225        C  0.26267182  0.63173527  0.15054110     0.02100
H226        H  0.28622642  0.65441124  0.99883776     0.09700
H227        H  0.24996124  0.63213541  0.19722948     0.08800
N228        N  0.36910101  0.56467100  0.02241290    -0.35100
N229        N  0.38303784  0.55296607  0.07790138    -0.27200
C230        C  0.40775422  0.53868963  0.05834697    -0.02500
C231        C  0.40952228  0.53982815  0.98650875     0.06100
C232        C  0.38433266  0.55643036  0.96535898     0.04200
H233        H  0.42048633  0.52224982  0.09208042     0.09300
H234        H  0.37619722  0.55870280  0.91248293     0.08200
N235        N  0.24983577  0.26968088  0.32904827    -0.35500
N236        N  0.28444785  0.30781362  0.21436525    -0.56100
N237        N  0.30974658  0.34287045  0.33215672    -0.35500
N238        N  0.27980987  0.31167891  0.44219516    -0.56100
C239        C  0.24951236  0.24960569  0.27096747     0.28100
C240        C  0.24950236  0.24968174  0.38736413     0.28100
C241        C  0.32457143  0.35424217  0.27742630     0.28000
C242        C  0.32028118  0.35879219  0.38894371     0.28000
C243        C  0.25837505  0.29695550  0.19324665     0.36700
C244        C  0.28637735  0.34094503  0.19491881     0.36700
C245        C  0.25522751  0.29804962  0.46457552     0.36700
C246        C  0.27968781  0.34491239  0.46107688     0.36700
C247        C  0.24900379  0.21571106  0.29274293    -0.20800
C248        C  0.24909642  0.21575848  0.36571397    -0.20800
C249        C  0.34825213  0.37264875  0.30145349    -0.20800
C250        C  0.34523440  0.37599098  0.37238716    -0.20800
C251        C  0.24324531  0.32316557  0.16119152    -0.21900
C252        C  0.26135822  0.35122736  0.16111609    -0.21900
C253        C  0.23880628  0.32264982  0.49716800    -0.21900
C254        C  0.25465945  0.35269121  0.49567407    -0.21900
C255        C  0.24958039  0.26288708  0.20061769    -0.17200
C256        C  0.24932223  0.26304763  0.45776317    -0.17200
C257        C  0.30218855  0.36724443  0.44407556    -0.17200
C258        C  0.30963631  0.36188646  0.21534971    -0.17200
H259        H  0.24937498  0.19318523  0.26005937     0.15700
H260        H  0.24944800  0.19326345  0.39846833     0.15700
H261        H  0.36276518  0.38760444  0.27024375     0.15700
H262        H  0.35725112  0.39342650  0.40549174     0.15700
H263        H  0.22170324  0.32192215  0.13953303     0.14000
H264        H  0.25630078  0.37642849  0.14119495     0.14000
H265        H  0.21805255  0.31906923  0.52052743     0.14000
H266        H  0.24843451  0.37724076  0.51664929     0.14000
H267        H  0.24893405  0.29635160  0.32860470     0.27200
H268        H  0.28869543  0.33411979  0.32831431     0.27200
N269        N  0.29626592  0.45219123  0.61773375    -0.26200
N270        N  0.27398219  0.43367631  0.63576782    -0.34100
C271        C  0.25071054  0.45386149  0.63821657     0.02100
C272        C  0.25904457  0.48692903  0.62199228     0.08100
C273        C  0.28811442  0.48490902  0.61063620    -0.04900
H274        H  0.22988316  0.44536097  0.65508019     0.08800
H275        H  0.30258942  0.50599044  0.60180899     0.10000
Cu276      Cu  0.27796534  0.38274872  0.66115028     0.44200
Cu277      Cu  0.33666884  0.43181671  0.60788729     0.42000
Cu278      Cu  0.34994333  0.34478968  0.65618089     0.43900
N279        N  0.28610959  0.33155733  0.64756233    -0.33600
N280        N  0.31148961  0.31794645  0.63500722    -0.27900
C281        C  0.30721718  0.28615325  0.60879393    -0.04000
C282        C  0.27780631  0.28020613  0.60411873     0.08300
C283        C  0.26550801  0.30871999  0.63321797     0.02100
H284        H  0.32412605  0.26860512  0.59488166     0.09700
H285        H  0.24283523  0.31335648  0.63985312     0.08800
N286        N  0.38082462  0.38405269  0.66336182    -0.35100
N287        N  0.37671901  0.41211090  0.62636235    -0.27200
C288        C  0.39780421  0.43422181  0.63954722    -0.02500
C289        C  0.41508658  0.42153728  0.69264994     0.06100
C290        C  0.40392688  0.38910949  0.70603727     0.04200
H291        H  0.39681939  0.46066206  0.62309834     0.09300
H292        H  0.41002781  0.37235479  0.74861299     0.08200
N293        N  0.36448948  0.41388675  0.05145716    -0.26200
N294        N  0.37053676  0.38692575  0.01304675    -0.34100
C295        C  0.39486997  0.39344458  0.97787897     0.02100
C296        C  0.40463918  0.42573769  0.99736145     0.08100
C297        C  0.38533605  0.43691079  0.04620611    -0.04900
H298        H  0.40287369  0.37777758  0.93597195     0.08800
H299        H  0.38342958  0.46283839  0.06538999     0.10000
Cu300      Cu  0.34112872  0.34681350  0.00648270     0.44200
Cu301      Cu  0.32346923  0.43048401  0.06773723     0.42000
Cu302      Cu  0.26732699  0.38225480  0.99889551     0.43900
N303        N  0.30355165  0.31841203  0.01861309    -0.33600
N304        N  0.27773368  0.33097369  0.00438824    -0.27900
C305        C  0.25795740  0.30721071  0.01789458    -0.04000
C306        C  0.27141379  0.27950971  0.04824943     0.08300
C307        C  0.30050007  0.28659353  0.04503487     0.02100
H308        H  0.23505348  0.31121139  0.01289447     0.09700
H309        H  0.31799197  0.27029141  0.06210822     0.08800
N310        N  0.26091424  0.43131271  0.03607205    -0.35100
N311        N  0.28252635  0.44933981  0.06137785    -0.27200
C312        C  0.27364474  0.48123250  0.07465189    -0.02500
C313        C  0.24474937  0.48335650  0.05912339     0.06100
C314        C  0.23725926  0.45104046  0.03463443     0.04200
H315        H  0.28772163  0.50214440  0.08883220     0.09300
H316        H  0.21689902  0.44316145  0.01221958     0.08200
N317        N  0.22325251  0.65719095  0.83979237    -0.35500
N318        N  0.21098595  0.60559046  0.94410410    -0.56100
N319        N  0.20183642  0.55431905  0.83442864    -0.35500
N320        N  0.21775883  0.60549555  0.73115947    -0.56100
C321        C  0.23026598  0.67475009  0.89899222     0.28100
C322        C  0.23367480  0.67457652  0.78411798     0.28100
C323        C  0.20505988  0.53443789  0.89164520     0.28000
C324        C  0.20861606  0.53461123  0.77909174     0.28000
C325        C  0.21060464  0.63343969  0.98580267     0.36700
C326        C  0.20059591  0.57939341  0.98209212     0.36700
C327        C  0.21861882  0.63356835  0.69053473     0.36700
C328        C  0.20874718  0.57975939  0.68941453     0.36700
C329        C  0.24507761  0.70403367  0.88038733    -0.20800
C330        C  0.24717532  0.70394865  0.80835819    -0.20800
C331        C  0.21310995  0.50166992  0.87201391    -0.20800
C332        C  0.21539278  0.50180220  0.80120135    -0.20800
C333        C  0.19929221  0.62481386  0.05005109    -0.21900
C334        C  0.19342067  0.59046519  0.04796737    -0.21900
C335        C  0.20939942  0.62556812  0.62317827    -0.21900
C336        C  0.20375053  0.59124252  0.62228318    -0.21900
C337        C  0.22259700  0.66570346  0.96887329    -0.17200
C338        C  0.22979859  0.66553522  0.71196802    -0.17200
C339        C  0.20904991  0.54531090  0.70907511    -0.17200
C340        C  0.20127375  0.54489112  0.96128617    -0.17200
H341        H  0.25340942  0.72358648  0.91508438     0.15700
H342        H  0.25734449  0.72345036  0.77730211     0.15700
H343        H  0.21760119  0.47989690  0.90504858     0.15700
H344        H  0.22190933  0.48020328  0.76999027     0.15700
H345        H  0.19631001  0.64124639  0.09471323     0.14000
H346        H  0.18538091  0.57518520  0.09043734     0.14000
H347        H  0.20756863  0.64239726  0.57859987     0.14000
H348        H  0.19715958  0.57627743  0.57736020     0.14000
H349        H  0.20954793  0.63633744  0.83688638     0.27200
H350        H  0.19396573  0.57922196  0.83291827     0.27200
C351        C  0.54391526  0.44385284  0.96930814    -0.09800
C352        C  0.55938478  0.47431237  0.96101938    -0.03600
C353        C  0.54585563  0.50612415  0.96397675    -0.09800
C354        C  0.51571264  0.50766994  0.95775841     0.11200
C355        C  0.49956979  0.47688499  0.95517541    -0.01600
C356        C  0.51363934  0.44483208  0.96390959     0.11000
C357        C  0.49703122  0.41514259  0.97128739    -0.11600
C358        C  0.46712422  0.41672855  0.96899568    -0.11600
C359        C  0.45284938  0.44799574  0.95841099     0.11000
C360        C  0.46917358  0.47841592  0.95176110    -0.01600
C361        C  0.50134395  0.53924233  0.95686709    -0.11700
C362        C  0.47149492  0.54072253  0.95296839    -0.11700
C363        C  0.45508026  0.51068254  0.95021066     0.11200
C364        C  0.42480818  0.51215366  0.94930730    -0.09800
C365        C  0.40945391  0.48169276  0.94289845    -0.03600
C366        C  0.42262919  0.45019922  0.95829088    -0.09800
H367        H  0.50707986  0.39045567  0.97904727     0.08400
H368        H  0.45523032  0.39320442  0.97506144     0.08400
H369        H  0.51323881  0.56301410  0.95836080     0.08600
H370        H  0.46122887  0.56557500  0.95164048     0.08600
H371        H  0.58256582  0.47359583  0.96719364     0.05100
H372        H  0.38620691  0.48317378  0.94367329     0.05100
N373        N  0.80683734  0.89912669  0.79332965    -0.26200
N374        N  0.78402928  0.88667976  0.76095909    -0.34100
C375        C  0.76340240  0.91078710  0.75722734     0.02100
C376        C  0.77444671  0.94025559  0.78703646     0.08100
C377        C  0.80165661  0.93178577  0.81042466    -0.04900
H378        H  0.74301973  0.90786901  0.73014872     0.08800
H379        H  0.81719329  0.94904208  0.83332144     0.10000
Cu380      Cu  0.78748396  0.84122524  0.70969833     0.44200
Cu381      Cu  0.84571305  0.87331400  0.79342697     0.42000
Cu382      Cu  0.85890741  0.81977058  0.64091671     0.43900
N383        N  0.79703845  0.79804193  0.65489893    -0.33600
N384        N  0.82147809  0.78966573  0.62519246    -0.27900
C385        C  0.81765636  0.75882463  0.59380055    -0.04000
C386        C  0.78941787  0.74831191  0.60402632     0.08300
C387        C  0.77788226  0.77318058  0.64544858     0.02100
H388        H  0.83443084  0.74432514  0.56903848     0.09700
H389        H  0.75709144  0.77274751  0.66964471     0.08800
N390        N  0.88975262  0.85244768  0.68886603    -0.35100
N391        N  0.88580257  0.86503505  0.75194838    -0.27200
C392        C  0.90728271  0.88641622  0.76818733    -0.02500
C393        C  0.92514983  0.88988996  0.71187462     0.06100
C394        C  0.91328356  0.86766536  0.66220093     0.04200
H395        H  0.90615901  0.90457676  0.81039803     0.09300
H396        H  0.91911116  0.86616884  0.60794154     0.08200
N397        N  0.76595982  0.93007481  0.00227601    -0.26200
N398        N  0.75001700  0.90330203  0.01613206    -0.34100
C399        C  0.72575309  0.91360365  0.04626192     0.02100
C400        C  0.72613283  0.94887072  0.05168314     0.08100
C401        C  0.75216560  0.95870321  0.02315854    -0.04900
H402        H  0.70999637  0.89650684  0.06793945     0.08800
H403        H  0.76132106  0.98411112  0.02313971     0.10000
Cu404      Cu  0.76687957  0.85463767  0.00823705     0.44200
Cu405      Cu  0.80699700  0.91930932  0.96810311     0.42000
Cu406      Cu  0.84282198  0.84001692  0.04462121     0.43900
N407        N  0.78456709  0.80796319  0.03447628    -0.33600
N408        N  0.81059637  0.80275171  0.06068946    -0.27900
C409        C  0.81122843  0.77088289  0.08904402    -0.04000
C410        C  0.78409542  0.75616859  0.08039697     0.08300
C411        C  0.76881739  0.77972451  0.04160793     0.02100
H412        H  0.83001021  0.75903455  0.11242923     0.09700
H413        H  0.74694085  0.77720984  0.02275825     0.08800
N414        N  0.86310050  0.88016575  0.98966514    -0.35100
N415        N  0.84852451  0.90227222  0.95061367    -0.27200
C416        C  0.86681626  0.92334843  0.91943352    -0.02500
C417        C  0.89431945  0.91732400  0.94439154     0.06100
C418        C  0.89120036  0.88900183  0.98795472     0.04200
H419        H  0.86002080  0.94647549  0.89313544     0.09300
H420        H  0.90756133  0.87821937  0.02199309     0.08200
N421        N  0.71757263  0.13499621  0.88275426    -0.35500
N422        N  0.72443590  0.07880459  0.78689691    -0.56100
N423        N  0.71530646  0.03125956  0.90524861    -0.35500
N424        N  0.71089173  0.08642785  0.00037864    -0.56100
C425        C  0.72478246  0.15202493  0.82320975     0.28100
C426        C  0.72216278  0.15619481  0.93849640     0.28100
C427        C  0.71189490  0.01099743  0.84910272     0.28000
C428        C  0.70364867  0.01423822  0.95924122     0.28000
C429        C  0.72062654  0.10361274  0.73857272     0.36700
C430        C  0.72466032  0.04869372  0.75224285     0.36700
C431        C  0.70746291  0.11627648  0.03474352     0.36700
C432        C  0.70396866  0.06104729  0.04531256     0.36700
C433        C  0.73379186  0.18463295  0.84167638    -0.20800
C434        C  0.73238924  0.18714033  0.91369169    -0.20800
C435        C  0.69794721  0.98112697  0.86665182    -0.20800
C436        C  0.69193884  0.98359526  0.93594039    -0.20800
C437        C  0.71652414  0.08867772  0.67353631    -0.21900
C438        C  0.72046459  0.05396389  0.68175144    -0.21900
C439        C  0.69700718  0.10977556  0.10076825    -0.21900
C440        C  0.69571428  0.07503415  0.10828370    -0.21900
C441        C  0.72271041  0.13929750  0.75247200    -0.17200
C442        C  0.71619865  0.14902621  0.01069976    -0.17200
C443        C  0.70314669  0.02564023  0.02884339    -0.17200
C444        C  0.72428160  0.01644455  0.78430328    -0.17200
H445        H  0.74091504  0.20454263  0.80682330     0.15700
H446        H  0.73805649  0.20945438  0.94426529     0.15700
H447        H  0.69265152  0.95988098  0.83264709     0.15700
H448        H  0.68021333  0.96484067  0.96551105     0.15700
H449        H  0.71093022  0.10133479  0.62516521     0.14000
H450        H  0.71806940  0.03465509  0.64165392     0.14000
H451        H  0.69154135  0.12811419  0.14064638     0.14000
H452        H  0.68882359  0.06207373  0.15482962     0.14000
H453        H  0.70755582  0.11122974  0.88467387     0.27200
H454        H  0.72822765  0.05293940  0.90743551     0.27200
N455        N  0.80595297  0.98458431  0.19576567    -0.26200
N456        N  0.78214434  0.00049540  0.21255989    -0.34100
C457        C  0.76042806  0.97802665  0.21317110     0.02100
C458        C  0.77101416  0.94642248  0.19456280     0.08100
C459        C  0.80006915  0.95143250  0.18398792    -0.04900
H460        H  0.73855070  0.98425431  0.22623232     0.08800
H461        H  0.81591030  0.93238376  0.17075495     0.10000
Cu462      Cu  0.78048848  0.05258545  0.22032226     0.44200
Cu463      Cu  0.84390550  0.01077210  0.18380222     0.42000
Cu464      Cu  0.82903255  0.08634334  0.08632090     0.43900
N465        N  0.77693255  0.09996436  0.17573049    -0.33600
N466        N  0.79207392  0.11092275  0.12234375    -0.27900
C467        C  0.77960344  0.13956146  0.09707149    -0.04000
C468        C  0.75593466  0.14677670  0.13718979     0.08300
C469        C  0.75510876  0.12145276  0.18685800     0.02100
H470        H  0.78699631  0.15381617  0.05252373     0.09700
H471        H  0.73861208  0.11750726  0.22508663     0.08800
N472        N  0.86709994  0.05812503  0.07762852    -0.35100
N473        N  0.87418228  0.03488379  0.12471611    -0.27200
C474        C  0.89787420  0.01853497  0.10484365    -0.02500
C475        C  0.90565755  0.03028830  0.03986605     0.06100
C476        C  0.88554058  0.05561821  0.02422487     0.04200
H477        H  0.90483285  0.99453788  0.12764371     0.09300
H478        H  0.88224811  0.06783521  0.97414583     0.08200
N479        N  0.78761801  0.97629241  0.62322307    -0.26200
N480        N  0.77639980  0.99516723  0.57275903    -0.34100
C481        C  0.75993763  0.97551113  0.53113185     0.02100
C482        C  0.76144273  0.94234024  0.55533189     0.08100
C483        C  0.77987329  0.94358713  0.61248948    -0.04900
H484        H  0.74936125  0.98428494  0.48381116     0.08800
H485        H  0.78900574  0.92213328  0.64019984     0.10000
Cu486      Cu  0.78708361  0.04545547  0.55861497     0.44200
Cu487      Cu  0.81516217  0.99627652  0.69908016     0.42000
Cu488      Cu  0.83749342  0.08290487  0.68017348     0.43900
N489        N  0.78620883  0.09567877  0.58714374    -0.33600
N490        N  0.80074144  0.10816696  0.64107094    -0.27900
C491        C  0.78638689  0.13575200  0.66501403    -0.04000
C492        C  0.76230856  0.14078299  0.62246146     0.08300
C493        C  0.76350191  0.11550529  0.57286171     0.02100
H494        H  0.79225117  0.15005752  0.71133986     0.09700
H495        H  0.74686912  0.10918634  0.53506203     0.08800
N496        N  0.86517956  0.04353863  0.71378464    -0.35100
N497        N  0.85395983  0.01480947  0.73683788    -0.27200
C498        C  0.87499355  0.99289472  0.75289997    -0.02500
C499        C  0.90112305  0.00649004  0.73288760     0.06100
C500        C  0.89398536  0.03928122  0.70922203     0.04200
H501        H  0.87093276  0.96643098  0.76588791     0.09300
H502        H  0.90795718  0.05699453  0.68297511     0.08200
N503        N  0.75083041  0.74018806  0.34766963    -0.35500
N504        N  0.75454620  0.79215331  0.45811261    -0.56100
N505        N  0.76019597  0.84381705  0.35655366    -0.35500
N506        N  0.76003765  0.79431574  0.24500553    -0.56100
C507        C  0.75690896  0.72082062  0.40492771     0.28100
C508        C  0.75770043  0.72223287  0.28942389     0.28100
C509        C  0.76909483  0.85944526  0.41543481     0.28000
C510        C  0.77265901  0.86006631  0.30329944     0.28000
C511        C  0.74341558  0.76484114  0.49030074     0.36700
C512        C  0.74690477  0.81986442  0.49540659     0.36700
C513        C  0.74673243  0.76917473  0.20955995     0.36700
C514        C  0.75274749  0.82372185  0.21277716     0.36700
C515        C  0.76712829  0.68938039  0.38268677    -0.20800
C516        C  0.76764265  0.69025877  0.31005086    -0.20800
C517        C  0.78827724  0.88533124  0.39983850    -0.20800
C518        C  0.79052153  0.88573690  0.32847318    -0.20800
C519        C  0.72756791  0.77526461  0.54709416    -0.21900
C520        C  0.73011073  0.81042713  0.55089076    -0.21900
C521        C  0.72944994  0.78269826  0.15710095    -0.21900
C522        C  0.73393698  0.81765932  0.15783613    -0.21900
C523        C  0.75220249  0.73118645  0.47568426    -0.17200
C524        C  0.75393141  0.73465204  0.21923641    -0.17200
C525        C  0.76417871  0.85516170  0.23359338    -0.17200
C526        C  0.75732101  0.85269794  0.48096230    -0.17200
H527        H  0.77349657  0.66800561  0.41523439     0.15700
H528        H  0.77461890  0.66971139  0.27656657     0.15700
H529        H  0.79887381  0.90269572  0.43579794     0.15700
H530        H  0.80304758  0.90358681  0.29858507     0.15700
H531        H  0.71691265  0.75900163  0.58426050     0.14000
H532        H  0.72145480  0.82689385  0.59073162     0.14000
H533        H  0.71629616  0.76858210  0.12011031     0.14000
H534        H  0.72458873  0.83627281  0.12247038     0.14000
H535        H  0.74065290  0.76389754  0.34805084     0.27200
H536        H  0.74317090  0.82659483  0.35219995     0.27200
C537        C  0.93850994  0.92378738  0.69867568    -0.09800
C538        C  0.91927059  0.95094019  0.69328636    -0.03600
C539        C  0.92629940  0.98412340  0.71572481    -0.09800
C540        C  0.95576375  0.99197893  0.72809303     0.11200
C541        C  0.97659707  0.96520475  0.72444435    -0.01600
C542        C  0.96770736  0.93093501  0.71190038     0.11000
C543        C  0.98827542  0.90488922  0.71013564    -0.11600
C544        C  0.01738959  0.91224631  0.71789966    -0.11600
C545        C  0.02707643  0.94575879  0.73092789     0.11000
C546        C  0.00631789  0.97254959  0.73425697    -0.01600
C547        C  0.96524595  0.02539180  0.74242872    -0.11700
C548        C  0.99456760  0.03298250  0.74619048    -0.11700
C549        C  0.01531722  0.00705492  0.74130584     0.11200
C550        C  0.04489225  0.01492946  0.74211938    -0.09800
C551        C  0.06459258  0.98820390  0.74959392    -0.03600
C552        C  0.05678136  0.95384269  0.73799970    -0.09800
H553        H  0.98198933  0.87870880  0.69961170     0.08400
H554        H  0.03195678  0.89118870  0.71218736     0.08400
H555        H  0.95021104  0.04618969  0.74792772     0.08600
H556        H  0.00106918  0.05930660  0.75411895     0.08600
H557        H  0.89722543  0.94475561  0.67972403     0.05100
H558        H  0.08710937  0.99495060  0.75287706     0.05100
N559        N  0.20827442  0.93107494  0.65255609    -0.26200
N560        N  0.22734736  0.91222626  0.68602370    -0.34100
C561        C  0.25226563  0.92949248  0.69042832     0.02100
C562        C  0.24841977  0.96105008  0.65846004     0.08100
C563        C  0.22013590  0.96092185  0.63545978    -0.04900
H564        H  0.27067977  0.92134456  0.72118503     0.08800
H565        H  0.20771016  0.98291661  0.61967074     0.10000
Cu566      Cu  0.21459572  0.86615657  0.72619897     0.44200
Cu567      Cu  0.16540745  0.91955394  0.65160351     0.42000
Cu568      Cu  0.13629931  0.84208114  0.70117698     0.43900
N569        N  0.19877120  0.82120511  0.68647004    -0.33600
N570        N  0.17192346  0.81267947  0.67117632    -0.27900
C571        C  0.17247063  0.78402123  0.63155229    -0.04000
C572        C  0.20094484  0.77540045  0.61936681     0.08300
C573        C  0.21655289  0.79863123  0.65802204     0.02100
H574        H  0.15365462  0.77006510  0.61422002     0.09700
H575        H  0.23962546  0.79916578  0.66493227     0.08800
N576        N  0.11217925  0.88732555  0.70627382    -0.35100
N577        N  0.12329487  0.91498693  0.67847708    -0.27200
C578        C  0.10499219  0.94104597  0.68373978    -0.02500
C579        C  0.08084509  0.93026956  0.71862402     0.06100
C580        C  0.08632758  0.89567969  0.73282496     0.04200
H581        H  0.10966750  0.96662882  0.66575738     0.09300
H582        H  0.07334971  0.87829441  0.76268163     0.08200
N583        N  0.16819013  0.94364442  0.05421637    -0.26200
N584        N  0.19124183  0.92835638  0.03024725    -0.34100
C585        C  0.21264247  0.95133020  0.02700411     0.02100
C586        C  0.20217512  0.98278107  0.04901009     0.08100
C587        C  0.17384778  0.97689440  0.06425203    -0.04900
H588        H  0.23351741  0.94589781  0.00588236     0.08800
H589        H  0.15799975  0.99584426  0.07771431     0.10000
Cu590      Cu  0.19028061  0.87768188  0.99906057     0.44200
Cu591      Cu  0.12970096  0.91889548  0.06913630     0.42000
Cu592      Cu  0.11852839  0.83793374  0.99835747     0.43900
N593        N  0.18269239  0.82608923  0.01291411    -0.33600
N594        N  0.15730186  0.81233782  0.02454970    -0.27900
C595        C  0.16160700  0.78131945  0.05448699    -0.04000
C596        C  0.19101879  0.77586664  0.06283715     0.08300
C597        C  0.20331329  0.80376566  0.03095080     0.02100
H598        H  0.14468540  0.76379694  0.06826743     0.09700
H599        H  0.22597586  0.80832397  0.02424422     0.08800
N600        N  0.08652054  0.87618869  0.99742046    -0.35100
N601        N  0.08967143  0.90105548  0.04322903    -0.27200
C602        C  0.06854165  0.92371990  0.03512789    -0.02500
C603        C  0.05216889  0.91511750  0.97707458     0.06100
C604        C  0.06407954  0.88428414  0.95440327     0.04200
H605        H  0.06902415  0.94865415  0.05950109     0.09300
H606        H  0.05891390  0.87100112  0.90637330     0.08200
N607        N  0.24086766  0.16369204  0.83259470    -0.35500
N608        N  0.24777470  0.11189633  0.72720460    -0.56100
N609        N  0.24890537  0.06006967  0.83538760    -0.35500
N610        N  0.23944624  0.11057008  0.94044529    -0.56100
C611        C  0.23481836  0.18208210  0.77387928     0.28100
C612        C  0.23086155  0.18127476  0.88826559     0.28100
C613        C  0.24253229  0.04242622  0.77687309     0.28000
C614        C  0.23876734  0.04154561  0.88899376     0.28000
C615        C  0.25284295  0.13987442  0.68828761     0.36700
C616        C  0.25718972  0.08483519  0.69033612     0.36700
C617        C  0.24340582  0.13852761  0.98016297     0.36700
C618        C  0.24644131  0.08352962  0.98106810     0.36700
C619        C  0.22096812  0.21198926  0.79267776    -0.20800
C620        C  0.21847825  0.21149061  0.86459312    -0.20800
C621        C  0.22723640  0.01317209  0.79356636    -0.20800
C622        C  0.22534147  0.01227972  0.86456579    -0.20800
C623        C  0.26602773  0.13052074  0.62673622    -0.21900
C624        C  0.26854537  0.09547928  0.62783020    -0.21900
C625        C  0.25373692  0.12908081  0.04584763    -0.21900
C626        C  0.25493421  0.09399659  0.04685391    -0.21900
C627        C  0.24270803  0.17297173  0.70451716    -0.17200
C628        C  0.23475068  0.17175780  0.95993185    -0.17200
C629        C  0.24294250  0.04964272  0.95947144    -0.17200
C630        C  0.25267694  0.05072898  0.71011499    -0.17200
H631        H  0.21359717  0.23218684  0.75823821     0.15700
H632        H  0.20890051  0.23131302  0.89599109     0.15700
H633        H  0.21823698  0.99429737  0.75869930     0.15700
H634        H  0.21506925  0.99247006  0.89455685     0.15700
H635        H  0.27226314  0.14708487  0.58441785     0.14000
H636        H  0.27705545  0.07962806  0.58678674     0.14000
H637        H  0.25904741  0.14562366  0.08935605     0.14000
H638        H  0.26124380  0.07807157  0.09061181     0.14000
H639        H  0.25379665  0.14204860  0.83557553     0.27200
H640        H  0.26245565  0.08122393  0.83913155     0.27200
N641        N  0.13687533  0.00922205  0.50836705    -0.26200
N642        N  0.16457588  0.01537519  0.50309070    -0.34100
C643        C  0.17878789  0.98534607  0.50044850     0.02100
C644        C  0.15895554  0.95929878  0.50858126     0.08100
C645        C  0.13273310  0.97539322  0.51215641    -0.04900
H646        H  0.20185409  0.98285998  0.49809594     0.08800
H647        H  0.11220439  0.96342605  0.52110570     0.10000
Cu648      Cu  0.18019009  0.06397484  0.52117749     0.44200
Cu649      Cu  0.10634379  0.04575105  0.53032420     0.42000
Cu650      Cu  0.13263488  0.10253813  0.65463316     0.43900
N651        N  0.18480862  0.11284758  0.56095528    -0.33600
N652        N  0.16916761  0.12638710  0.61112866    -0.27900
C653        C  0.17995719  0.15761995  0.62631070    -0.04000
C654        C  0.20287165  0.16402386  0.58274692     0.08300
C655        C  0.20521387  0.13512733  0.54217364     0.02100
H656        H  0.17191223  0.17436616  0.66641702     0.09700
H657        H  0.22149878  0.12994008  0.50402401     0.08800
N658        N  0.09315717  0.07640301  0.66661411    -0.35100
N659        N  0.08137658  0.06117253  0.61196196    -0.27200
C660        C  0.05851574  0.04306992  0.63185529    -0.02500
C661        C  0.05588980  0.04516706  0.70353111     0.06100
C662        C  0.07852243  0.06670849  0.72380523     0.04200
H663        H  0.04879623  0.02339787  0.59956876     0.09300
H664        H  0.08607298  0.07098021  0.77666973     0.08200
N665        N  0.14236771  0.00832171  0.20841461    -0.26200
N666        N  0.16800604  0.02204087  0.21672425    -0.34100
C667        C  0.18704094  0.99713686  0.23269196     0.02100
C668        C  0.17264628  0.96612567  0.23170788     0.08100
C669        C  0.14428363  0.97430575  0.21722181    -0.04900
H670        H  0.20998730  0.00081711  0.23713297     0.08800
H671        H  0.12683678  0.95661301  0.20769617     0.10000
Cu672      Cu  0.17504325  0.07151421  0.18222338     0.44200
Cu673      Cu  0.10921668  0.03470878  0.16055409     0.42000
Cu674      Cu  0.13011764  0.09351815  0.02537109     0.43900
N675        N  0.17817149  0.11647144  0.12534603    -0.33600
N676        N  0.16429817  0.12366285  0.06625313    -0.27900
C677        C  0.17526983  0.15300720  0.04042948    -0.04000
C678        C  0.19646684  0.16491645  0.08624574     0.08300
C679        C  0.19738128  0.14118624  0.13939672     0.02100
H680        H  0.16858485  0.16464919  0.99166540     0.09700
H681        H  0.21236991  0.14070748  0.18301447     0.08800
N682        N  0.09342048  0.06166226  0.01801809    -0.35100
N683        N  0.08440330  0.04496592  0.07345675    -0.27200
C684        C  0.06155722  0.02593248  0.05616912    -0.02500
C685        C  0.05580689  0.02962145  0.98598584     0.06100
C686        C  0.07664020  0.05234234  0.96277588     0.04200
H687        H  0.05220936  0.00706218  0.09020612     0.09300
H688        H  0.08044535  0.05963605  0.90934873     0.08200
N689        N  0.22260796  0.76614609  0.34139846    -0.35500
N690        N  0.19383893  0.81179502  0.23289025    -0.56100
N691        N  0.17669158  0.85190401  0.34985107    -0.35500
N692        N  0.20065638  0.81191393  0.45749385    -0.56100
C693        C  0.21942444  0.74625877  0.28312186     0.28100
C694        C  0.22245416  0.74604276  0.39975031     0.28100
C695        C  0.16224409  0.86497342  0.29513875     0.28000
C696        C  0.16550952  0.86542918  0.40772374     0.28000
C697        C  0.21568357  0.79474123  0.20406800     0.36700
C698        C  0.19521824  0.84435156  0.20948583     0.36700
C699        C  0.22359436  0.79416223  0.48021073     0.36700
C700        C  0.20338878  0.84399316  0.48288075     0.36700
C701        C  0.21713205  0.71250969  0.30519201    -0.20800
C702        C  0.21909731  0.71238400  0.37808577    -0.20800
C703        C  0.13921651  0.88402271  0.31785896    -0.20800
C704        C  0.14114985  0.88425993  0.38936343    -0.20800
C705        C  0.23181625  0.81666435  0.16382925    -0.21900
C706        C  0.21836864  0.84833372  0.16606975    -0.21900
C707        C  0.24137189  0.81486808  0.52042871    -0.21900
C708        C  0.22837481  0.84679094  0.52247141    -0.21900
C709        C  0.21926870  0.75921908  0.21206165    -0.17200
C710        C  0.22578938  0.75866669  0.47054557    -0.17200
C711        C  0.18303110  0.86974389  0.46765457    -0.17200
C712        C  0.17606982  0.86974126  0.23197161    -0.17200
H713        H  0.21385016  0.69020842  0.27272016     0.15700
H714        H  0.21778199  0.69002121  0.41104138     0.15700
H715        H  0.12489474  0.89965585  0.28635640     0.15700
H716        H  0.12754466  0.89949732  0.42200306     0.15700
H717        H  0.25087590  0.81025452  0.13513440     0.14000
H718        H  0.22515747  0.87153931  0.14043514     0.14000
H719        H  0.26114131  0.80744657  0.54659420     0.14000
H720        H  0.23632568  0.86921457  0.54956281     0.14000
H721        H  0.22624703  0.79246718  0.34118270     0.27200
H722        H  0.19757503  0.84245449  0.34679829     0.27200
C723        C  0.91480219  0.94628158  0.95382214    -0.09800
C724        C  0.90242507  0.97716874  0.97523933    -0.03600
C725        C  0.91856967  0.00622495  0.98975229    -0.09800
C726        C  0.94791356  0.00627592  0.97433620     0.11200
C727        C  0.96135842  0.97539846  0.95304599    -0.01600
C728        C  0.94499357  0.94477928  0.94563475     0.11000
C729        C  0.95943815  0.91390970  0.93254124    -0.11600
C730        C  0.98948068  0.91283362  0.93057711    -0.11600
C731        C  0.00584031  0.94293197  0.93621121     0.11000
C732        C  0.99155322  0.97470962  0.94449104    -0.01600
C733        C  0.96428249  0.03606378  0.98257115    -0.11700
C734        C  0.99361309  0.03573565  0.97062577    -0.11700
C735        C  0.00773110  0.00529913  0.95267429     0.11200
C736        C  0.03788711  0.00446822  0.94690818    -0.09800
C737        C  0.05117739  0.97330527  0.93151004    -0.03600
C738        C  0.03619887  0.94214056  0.93739608    -0.09800
H739        H  0.94767279  0.89022568  0.92645618     0.08400
H740        H  0.99993681  0.88838616  0.92326087     0.08400
H741        H  0.95435495  0.05992116  0.99778398     0.08600
H742        H  0.00535040  0.05945310  0.97683602     0.08600
H743        H  0.87984806  0.97786907  0.98810878     0.05100
H744        H  0.07445855  0.97257401  0.93303717     0.05100
C745        C  0.75748485  0.66516041  0.65886995     0.03400
C746        C  0.73803849  0.65837251  0.60276117     0.03300
C747        C  0.73844977  0.67867700  0.54206030    -0.17200
C748        C  0.75649679  0.70724738  0.53678913     0.03400
C749        C  0.77548056  0.71466213  0.59421546     0.03300
C750        C  0.77607234  0.69306914  0.65303190    -0.17200
H751        H  0.79062841  0.69880837  0.69610722     0.05400
H752        H  0.72336668  0.67326654  0.49990179     0.05400
C753        C  0.25142830  0.68647001  0.59627035     0.03400
C754        C  0.23393116  0.69170265  0.65544411     0.03300
C755        C  0.21525646  0.71939722  0.65510740    -0.17200
C756        C  0.21328413  0.74229017  0.59907811     0.03400
C757        C  0.22859381  0.73595443  0.53571970     0.03300
C758        C  0.24766923  0.70775806  0.53655000    -0.17200
H759        H  0.26050450  0.70292192  0.49101859     0.05400
H760        H  0.20239299  0.72389464  0.70093088     0.05400
C761        C  0.24197523  0.68510963  0.08944204     0.03400
C762        C  0.22573608  0.69146518  0.02744576     0.03300
C763        C  0.20871675  0.72084992  0.02442464    -0.17200
C764        C  0.20661451  0.74380558  0.08068018     0.03400
C765        C  0.22143658  0.73677341  0.14607439     0.03300
C766        C  0.23932830  0.70741941  0.14745956    -0.17200
H767        H  0.25211943  0.70216628  0.19380454     0.05400
H768        H  0.19660528  0.72596506  0.97677410     0.05400
C769        C  0.74094907  0.66001348  0.09389650     0.03400
C770        C  0.75825813  0.66814265  0.03572923     0.03300
C771        C  0.77420036  0.69851485  0.03773421    -0.17200
C772        C  0.77329104  0.72114850  0.09483941     0.03400
C773        C  0.75704060  0.71205547  0.15536615     0.03300
C774        C  0.74135647  0.68136402  0.15302382    -0.17200
H775        H  0.72806280  0.67471311  0.19684660     0.05400
H776        H  0.78699175  0.70519997  0.99301412     0.05400
C777        C  0.25656024  0.24787987  0.06842374     0.03400
C778        C  0.24315875  0.24188458  0.13454686     0.03300
C779        C  0.22273844  0.21514693  0.13644133    -0.17200
C780        C  0.21692678  0.19380987  0.07811197     0.03400
C781        C  0.23294192  0.19819752  0.01632701     0.03300
C782        C  0.25190257  0.22553925  0.01253336    -0.17200
H783        H  0.26355915  0.22951764  0.96464829     0.05400
H784        H  0.21077393  0.21102154  0.18358813     0.05400
C785        C  0.69366037  0.21272136  0.63980063     0.03400
C786        C  0.70840953  0.21013187  0.57438848     0.03300
C787        C  0.73046435  0.18538819  0.57230177    -0.17200
C788        C  0.73774701  0.16425234  0.63055493     0.03400
C789        C  0.72039843  0.16441529  0.69135520     0.03300
C790        C  0.69830935  0.18850046  0.69317409    -0.17200
H791        H  0.68579304  0.19036558  0.74027644     0.05400
H792        H  0.74331910  0.18368023  0.52587707     0.05400
C793        C  0.24627460  0.24152735  0.52442540     0.03400
C794        C  0.26196354  0.24829166  0.58853214     0.03300
C795        C  0.25937570  0.22634910  0.64622658    -0.17200
C796        C  0.24072750  0.19849613  0.64562338     0.03400
C797        C  0.22342196  0.19289234  0.58532420     0.03300
C798        C  0.22678301  0.21376747  0.52550919    -0.17200
H799        H  0.21341732  0.20872201  0.48001505     0.05400
H800        H  0.27207989  0.23123430  0.69305372     0.05400
C801        C  0.70855050  0.22163464  0.18392289     0.03400
C802        C  0.69465835  0.22751860  0.11692279     0.03300
C803        C  0.69839601  0.20430470  0.06137189    -0.17200
C804        C  0.71772288  0.17707152  0.06569958     0.03400
C805        C  0.73451393  0.17409190  0.12793456     0.03300
C806        C  0.72918181  0.19536860  0.18589493    -0.17200
H807        H  0.74185226  0.19160281  0.23307819     0.05400
H808        H  0.68640940  0.20802613  0.01302411     0.05400
C809        C  0.17440588  0.90452897  0.20201813    -0.15400
C810        C  0.18519930  0.93145534  0.23787463    -0.30500
H811        H  0.15776317  0.90859554  0.16329682     0.13700
H812        H  0.20154079  0.92726938  0.27796603     0.14200
C813        C  0.16292887  0.92207670  0.51564188    -0.15400
C814        C  0.18623112  0.90515109  0.49481740    -0.30500
H815        H  0.14404658  0.90738507  0.52921323     0.13700
H816        H  0.20572221  0.91896830  0.48273469     0.14200
C817        C  0.21479191  0.01706122  0.04051245    -0.15400
C818        C  0.24013782  0.02147521  0.01011276    -0.30500
H819        H  0.20035217  0.03878800  0.04487955     0.13700
H820        H  0.25410783  0.99960628  0.00271477     0.14200
C821        C  0.26488966  0.99219679  0.67548322    -0.15400
C822        C  0.25448039  0.02312322  0.65736008    -0.30500
H823        H  0.27964430  0.99036786  0.71977723     0.13700
H824        H  0.24094968  0.02593476  0.61111714     0.14200
C825        C  0.75105768  0.91223828  0.51668323    -0.15400
C826        C  0.75776477  0.87995661  0.53473364    -0.30500
H827        H  0.74102854  0.91701264  0.46605075     0.13700
H828        H  0.76661893  0.87407778  0.58600689     0.14200
C829        C  0.75559457  0.91386686  0.20128084    -0.15400
C830        C  0.76765713  0.88387438  0.18476695    -0.30500
H831        H  0.73696745  0.91399154  0.23467482     0.13700
H832        H  0.78596489  0.88296047  0.15054281     0.14200
C833        C  0.70534163  0.96842509  0.09402732    -0.15400
C834        C  0.69579042  0.00084084  0.08534790    -0.30500
H835        H  0.69564114  0.95400963  0.13595665     0.13700
H836        H  0.68019528  0.00913407  0.12312324     0.14200
C837        C  0.76150272  0.97427158  0.79389757    -0.15400
C838        C  0.73950361  0.98661075  0.75501108    -0.30500
H839        H  0.76987110  0.98974643  0.83675211     0.13700
H840        H  0.73086303  0.97291050  0.71017881     0.14200
C841        C  0.22935171  0.51597831  0.04968003    -0.15400
C842        C  0.20424304  0.51785897  0.01502030    -0.30500
H843        H  0.24224726  0.53902243  0.05521615     0.13700
H844        H  0.19159686  0.49481676  0.00746496     0.14200
C845        C  0.24325405  0.51896202  0.63304080    -0.15400
C846        C  0.21635230  0.51919104  0.65658226    -0.30500
H847        H  0.25597959  0.54223322  0.63620086     0.13700
H848        H  0.20378922  0.49583831  0.65579124     0.14200
C849        C  0.29728991  0.42258723  0.22487606    -0.15400
C850        C  0.31219855  0.39782342  0.19249407    -0.30500
H851        H  0.27844159  0.41579429  0.25441645     0.13700
H852        H  0.33190023  0.40422503  0.16664451     0.14200
C853        C  0.30464192  0.40212508  0.47316997    -0.15400
C854        C  0.29817286  0.42968927  0.43373858    -0.30500
H855        H  0.31691170  0.40481709  0.52083751     0.13700
H856        H  0.28542257  0.42656557  0.38631153     0.14200
C857        C  0.64889653  0.38252877  0.24782611    -0.15400
C858        C  0.66642252  0.40676121  0.27456148    -0.30500
H859        H  0.63010490  0.38981714  0.21732827     0.13700
H860        H  0.68477827  0.39922616  0.30661753     0.14200
C861        C  0.64686671  0.37229781  0.53591328    -0.15400
C862        C  0.66448406  0.39619341  0.50996826    -0.30500
H863        H  0.62773100  0.37994103  0.56318321     0.13700
H864        H  0.68291712  0.38825411  0.47996673     0.14200
C865        C  0.72960019  0.49446653  0.06308908    -0.15400
C866        C  0.75548224  0.49549871  0.03384641    -0.30500
H867        H  0.71645972  0.51745370  0.06308047     0.13700
H868        H  0.76827215  0.47235627  0.03108137     0.14200
C869        C  0.76127288  0.45834356  0.69099231    -0.15400
C870        C  0.75419278  0.49094808  0.67611846    -0.30500
H871        H  0.77751286  0.45352282  0.73110154     0.13700
H872        H  0.73904500  0.49664718  0.63416643     0.14200
loop_ 
_geom_bond_atom_site_label_1 
_geom_bond_atom_site_label_2 
_geom_bond_distance 
_geom_bond_site_symmetry_2 
_ccdc_geom_bond_type 
N1            N2   1.317       .  A
N1            C5   1.340       .  A
N1           Cu9   2.058       .  S
N2            C3   1.345       .  A
N2           Cu8   2.065       .  S
C3            C4   1.388       .  A
C3            H6   1.082       .  S
C4            C5   1.386       .  A
C4          C869   1.476       .  S
C5            H7   1.079       .  S
Cu8          N11   2.060       .  S
Cu9          N19   2.059       .  S
Cu10         N12   2.094       .  S
Cu10         N18   2.089       .  S
N11          N12   1.325       .  A
N11          C15   1.335       .  A
N12          C13   1.354       .  A
C13          C14   1.387       .  A
C13          H16   1.081       .  S
C14          C15   1.375       .  A
C14         C785   1.470       .  S
C15          H17   1.082       .  S
N18          N19   1.319       .  A
N18          C22   1.357       .  A
N19          C20   1.332       .  A
C20          C21   1.384       .  A
C20          H23   1.083       .  S
C21          C22   1.396       .  A
C21         C167   1.493       .  S
C22          H24   1.082       .  S
N25          N26   1.317       .  A
N25          C29   1.341       .  A
N25         Cu33   2.058       .  S
N26          C27   1.344       .  A
N26         Cu32   2.060       .  S
C27          C28   1.390       .  A
C27          H30   1.081       .  S
C28          C29   1.379       .  A
C28         C865   1.475       .  S
C29          H31   1.079       .  S
Cu32         N35   2.055       .  S
Cu33         N43   2.049       .  S
Cu34         N36   2.105       .  S
Cu34         N42   2.098       .  S
N35          N36   1.323       .  A
N35          C39   1.337       .  A
N36          C37   1.354       .  A
C37          C38   1.391       .  A
C37          H40   1.081       .  S
C38          C39   1.377       .  A
C38         C802   1.476       .  S
C39          H41   1.082       .  S
N42          N43   1.319       .  A
N42          C46   1.357   1_554  A
N43          C44   1.332       .  A
C44          C45   1.380       .  A
C44          H47   1.083       .  S
C45          C46   1.395   1_554  A
C45         C351   1.487   1_554  S
C46          H48   1.082       .  S
N49          C54   1.362       .  A
N49          C53   1.361       .  A
N49          H81   1.040       .  S
N50          C57   1.348       .  A
N50          C58   1.352       .  A
N51          C56   1.350       .  A
N51          C55   1.348       .  A
N51          H82   1.043       .  S
N52          C59   1.345       .  A
N52          C60   1.350       .  A
C53          C61   1.387       .  A
C53          C69   1.434       .  A
C54          C70   1.436       .  A
C54          C62   1.388       .  A
C55          C63   1.388       .  A
C55          C72   1.409       .  A
C56          C71   1.403       .  A
C56          C64   1.385       .  A
C57          C69   1.416       .  A
C57          C65   1.390       .  A
C58          C72   1.404       .  A
C58          C66   1.382       .  A
C59          C67   1.391   1_556  A
C59          C70   1.413       .  A
C60          C68   1.381   1_556  A
C60          C71   1.400       .  A
C61          C62   1.389       .  A
C61          H73   1.082       .  S
C62          H74   1.082       .  S
C63          C64   1.367       .  A
C63          H75   1.080       .  S
C64          H76   1.081       .  S
C65          C66   1.374       .  A
C65          H77   1.082       .  S
C66          H78   1.082       .  S
C67          C68   1.375       .  A
C67          H79   1.082       .  S
C68          H80   1.082       .  S
C69         C745   1.510       .  S
C70         C770   1.509   1_556  S
C71         C866   1.476   1_556  S
C72         C870   1.486       .  S
N83          N84   1.319       .  A
N83          C87   1.345       .  A
N83         Cu91   2.065       .  S
N84          C85   1.345       .  A
N84         Cu90   2.064       .  S
C85          C86   1.383       .  A
C85          H88   1.082       .  S
C86          C87   1.386       .  A
C86         C862   1.477       .  S
C87          H89   1.082       .  S
Cu90         N93   2.068       .  S
Cu91        N101   2.053       .  S
Cu92         N94   2.091       .  S
Cu92        N100   2.088       .  S
N93          N94   1.324       .  A
N93          C97   1.343       .  A
N94          C95   1.347       .  A
C95          C96   1.385       .  A
C95          H98   1.082       .  S
C96          C97   1.380       .  A
C96         C746   1.478       .  S
C97          H99   1.082       .  S
N100        N101   1.319       .  A
N100        C104   1.349       .  A
N101        C102   1.336       .  A
C102        C103   1.381       .  A
C102        H105   1.083       .  S
C103        C104   1.392       .  A
C103        C165   1.478       .  S
C104        H106   1.078       .  S
N107        N108   1.320       .  A
N107        C111   1.344       .  A
N107       Cu115   2.066       .  S
N108        C109   1.349       .  A
N108       Cu114   2.087       .  S
C109        C110   1.387       .  A
C109        H112   1.082       .  S
C110        C111   1.384       .  A
C110        C858   1.482       .  S
C111        H113   1.082       .  S
Cu114       N117   2.091       .  S
Cu115       N125   2.061       .  S
Cu116       N118   2.101       .  S
Cu116       N124   2.099       .  S
N117        N118   1.326       .  A
N117        C121   1.346       .  A
N118        C119   1.351       .  A
C119        C120   1.386       .  A
C119        H122   1.082       .  S
C120        C121   1.384       .  A
C120        C769   1.486       .  S
C121        H123   1.082       .  S
N124        N125   1.320       .  A
N124        C128   1.351   1_554  A
N125        C126   1.339       .  A
C126        C127   1.383       .  A
C126        H129   1.083       .  S
C127        C128   1.393   1_554  A
C127        C353   1.481   1_554  S
C128        H130   1.076       .  S
N131        C136   1.369       .  A
N131        C135   1.372       .  A
N131        H163   1.045       .  S
N132        C139   1.347       .  A
N132        C140   1.352       .  A
N133        C138   1.345       .  A
N133        C137   1.343       .  A
N133        H164   1.041       .  S
N134        C141   1.344       .  A
N134        C142   1.353       .  A
C135        C143   1.388       .  A
C135        C151   1.456       .  A
C136        C152   1.460       .  A
C136        C144   1.392       .  A
C137        C145   1.390       .  A
C137        C154   1.404       .  A
C138        C153   1.404       .  A
C138        C146   1.386       .  A
C139        C151   1.404       .  A
C139        C147   1.382       .  A
C140        C154   1.412       .  A
C140        C148   1.385       .  A
C141        C149   1.383       .  A
C141        C152   1.405       .  A
C142        C150   1.384       .  A
C142        C153   1.411       .  A
C143        C144   1.401       .  A
C143        H155   1.082       .  S
C144        H156   1.081       .  S
C145        C146   1.377       .  A
C145        H157   1.083       .  S
C146        H158   1.082       .  S
C147        C148   1.382       .  A
C147        H159   1.082       .  S
C148        H160   1.080       .  S
C149        C150   1.385       .  A
C149        H161   1.082       .  S
C150        H162   1.082       .  S
C151        C786   1.552       .  S
C152        C801   1.545       .  S
C153        C857   1.483       .  S
C154        C861   1.478       .  S
C165        C166   1.393       .  A
C165        C170   1.406       .  A
C166        C167   1.407       .  A
C166        H185   1.085       .  S
C167        C168   1.423       .  A
C168        C169   1.425       .  A
C168        C175   1.407       .  A
C169        C170   1.418       .  A
C169        C174   1.421       .  A
C170        C171   1.404       .  A
C171        C172   1.390       .  A
C171        H181   1.083       .  S
C172        C173   1.401       .  A
C172        H182   1.083       .  S
C173        C174   1.425       .  A
C173        C180   1.410       .  A
C174        C177   1.420       .  A
C175        C176   1.400       .  A
C175        H183   1.080       .  S
C176        C177   1.406       .  A
C176        H184   1.082       .  S
C177        C178   1.416       .  A
C178        C179   1.409       .  A
C178        C289   1.491       .  S
C179        C180   1.396       .  A
C179        H186   1.086       .  S
C180        C207   1.490       .  S
N187        N188   1.319       .  A
N187        C191   1.346       .  A
N187       Cu195   2.072       .  S
N188        C189   1.348       .  A
N188       Cu194   2.068       .  S
C189        C190   1.384       .  A
C189        H192   1.082       .  S
C190        C191   1.385       .  A
C190        C854   1.478       .  S
C191        H193   1.082       .  S
Cu194       N197   2.070       .  S
Cu195       N205   2.065       .  S
Cu196       N198   2.131       .  S
Cu196       N204   2.128       .  S
N197        N198   1.326       .  A
N197        C201   1.343       .  A
N198        C199   1.355       .  A
C199        C200   1.394       .  A
C199        H202   1.082       .  S
C200        C201   1.378       .  A
C200        C753   1.489       .  S
C201        H203   1.082       .  S
N204        N205   1.322       .  A
N204        C208   1.357       .  A
N205        C206   1.339       .  A
C206        C207   1.382       .  A
C206        H209   1.083       .  S
C207        C208   1.398       .  A
C208        H210   1.081       .  S
N211        N212   1.320       .  A
N211        C215   1.344       .  A
N211       Cu219   2.066       .  S
N212        C213   1.349       .  A
N212       Cu218   2.082       .  S
C213        C214   1.386       .  A
C213        H216   1.082       .  S
C214        C215   1.385       .  A
C214        C849   1.482       .  S
C215        H217   1.082       .  S
Cu218       N221   2.086       .  S
Cu219       N229   2.060       .  S
Cu220       N222   2.110       .  S
Cu220       N228   2.108       .  S
N221        N222   1.326       .  A
N221        C225   1.347       .  A
N222        C223   1.350       .  A
C223        C224   1.389       .  A
C223        H226   1.082   1_554  S
C224        C225   1.385       .  A
C224        C761   1.490       .  S
C225        H227   1.082       .  S
N228        N229   1.320       .  A
N228        C232   1.353   1_554  A
N229        C230   1.339       .  A
C230        C231   1.383   1_554  A
C230        H233   1.083       .  S
C231        C232   1.396       .  A
C231        C364   1.484       .  S
C232        H234   1.081       .  S
N235        C240   1.366       .  A
N235        C239   1.363       .  A
N235        H267   1.044       .  S
N236        C243   1.345       .  A
N236        C244   1.352       .  A
N237        C242   1.342       .  A
N237        C241   1.342       .  A
N237        H268   1.041       .  S
N238        C245   1.341       .  A
N238        C246   1.349       .  A
C239        C247   1.390       .  A
C239        C255   1.446       .  A
C240        C256   1.448       .  A
C240        C248   1.390       .  A
C241        C249   1.391       .  A
C241        C258   1.402       .  A
C242        C257   1.403       .  A
C242        C250   1.386       .  A
C243        C255   1.402       .  A
C243        C251   1.383       .  A
C244        C258   1.410       .  A
C244        C252   1.385       .  A
C245        C253   1.384       .  A
C245        C256   1.402       .  A
C246        C254   1.385       .  A
C246        C257   1.408       .  A
C247        C248   1.400       .  A
C247        H259   1.082       .  S
C248        H260   1.081       .  S
C249        C250   1.377       .  A
C249        H261   1.083       .  S
C250        H262   1.082       .  S
C251        C252   1.385       .  A
C251        H263   1.082       .  S
C252        H264   1.082       .  S
C253        C254   1.389       .  A
C253        H265   1.082       .  S
C254        H266   1.082       .  S
C255        C778   1.536       .  S
C256        C793   1.540       .  S
C257        C853   1.478       .  S
C258        C850   1.478       .  S
N269        N270   1.318       .  A
N269        C273   1.341       .  A
N269       Cu277   2.056       .  S
N270        C271   1.343       .  A
N270       Cu276   2.058       .  S
C271        C272   1.387       .  A
C271        H274   1.081       .  S
C272        C273   1.378       .  A
C272        C845   1.470       .  S
C273        H275   1.081       .  S
Cu276       N279   2.055       .  S
Cu277       N287   2.045       .  S
Cu278       N280   2.112       .  S
Cu278       N286   2.109       .  S
N279        N280   1.323       .  A
N279        C283   1.338       .  A
N280        C281   1.355       .  A
C281        C282   1.393       .  A
C281        H284   1.081       .  S
C282        C283   1.376       .  A
C282        C794   1.479       .  S
C283        H285   1.082       .  S
N286        N287   1.319       .  A
N286        C290   1.357       .  A
N287        C288   1.331       .  A
C288        C289   1.381       .  A
C288        H291   1.082       .  S
C289        C290   1.397       .  A
C290        H292   1.082       .  S
N293        N294   1.319       .  A
N293        C297   1.331       .  A
N293       Cu301   2.048       .  S
N294        C295   1.354   1_554  A
N294       Cu300   2.087       .  S
C295        C296   1.392       .  A
C295        H298   1.082       .  S
C296        C297   1.380   1_556  A
C296        C366   1.484       .  S
C297        H299   1.083       .  S
Cu300       N303   2.091       .  S
Cu301       N311   2.048       .  S
Cu302       N304   2.065   1_556  S
Cu302       N310   2.070   1_556  S
N303        N304   1.324       .  A
N303        C307   1.352       .  A
N304        C305   1.338       .  A
C305        C306   1.376       .  A
C305        H308   1.082       .  S
C306        C307   1.387       .  A
C306        C777   1.473       .  S
C307        H309   1.082       .  S
N310        N311   1.317       .  A
N310        C314   1.345       .  A
N311        C312   1.340       .  A
C312        C313   1.378       .  A
C312        H315   1.081       .  S
C313        C314   1.391       .  A
C313        C841   1.473       .  S
C314        H316   1.081       .  S
N317        C322   1.363       .  A
N317        C321   1.363       .  A
N317        H349   1.037       .  S
N318        C325   1.352       .  A
N318        C326   1.352       .  A
N319        C324   1.353       .  A
N319        C323   1.352       .  A
N319        H350   1.041       .  S
N320        C327   1.348       .  A
N320        C328   1.349       .  A
C321        C329   1.388       .  A
C321        C337   1.437       .  A
C322        C338   1.437       .  A
C322        C330   1.387       .  A
C323        C331   1.389       .  A
C323        C340   1.411       .  A
C324        C339   1.408       .  A
C324        C332   1.386       .  A
C325        C337   1.420       .  A
C325        C333   1.390   1_556  A
C326        C340   1.408       .  A
C326        C334   1.382   1_556  A
C327        C335   1.391       .  A
C327        C338   1.414       .  A
C328        C336   1.380       .  A
C328        C339   1.399       .  A
C329        C330   1.387       .  A
C329        H341   1.082       .  S
C330        H342   1.082       .  S
C331        C332   1.365       .  A
C331        H343   1.080       .  S
C332        H344   1.082       .  S
C333        C334   1.372       .  A
C333        H345   1.082       .  S
C334        H346   1.082       .  S
C335        C336   1.368       .  A
C335        H347   1.082       .  S
C336        H348   1.082       .  S
C337        C762   1.515   1_556  S
C338        C754   1.506       .  S
C339        C846   1.478       .  S
C340        C842   1.482   1_556  S
C351        C352   1.403       .  A
C351        C356   1.414       .  A
C352        C353   1.396       .  A
C352        H371   1.086       .  S
C353        C354   1.410       .  A
C354        C355   1.421       .  A
C354        C361   1.404       .  A
C355        C356   1.423       .  A
C355        C360   1.419       .  A
C356        C357   1.405       .  A
C357        C358   1.396       .  A
C357        H367   1.082       .  S
C358        C359   1.405       .  A
C358        H368   1.082       .  S
C359        C360   1.420       .  A
C359        C366   1.412       .  A
C360        C363   1.422       .  A
C361        C362   1.394       .  A
C361        H369   1.083       .  S
C362        C363   1.403       .  A
C362        H370   1.083       .  S
C363        C364   1.413       .  A
C364        C365   1.395       .  A
C365        C366   1.405       .  A
C365        H372   1.086       .  S
N373        N374   1.317       .  A
N373        C377   1.341       .  A
N373       Cu381   2.074       .  S
N374        C375   1.347       .  A
N374       Cu380   2.039       .  S
C375        C376   1.383       .  A
C375        H378   1.082       .  S
C376        C377   1.379       .  A
C376        C837   1.467       .  S
C377        H379   1.079       .  S
Cu380       N383   2.042       .  S
Cu381       N391   2.068       .  S
Cu382       N384   2.124       .  S
Cu382       N390   2.124       .  S
N383        N384   1.323       .  A
N383        C387   1.331       .  A
N384        C385   1.359       .  A
C385        C386   1.397       .  A
C385        H388   1.082       .  S
C386        C387   1.371       .  A
C386        C749   1.479       .  S
C387        H389   1.082       .  S
N390        N391   1.322       .  A
N390        C394   1.356       .  A
N391        C392   1.338       .  A
C392        C393   1.382       .  A
C392        H395   1.079       .  S
C393        C394   1.398       .  A
C393        C537   1.489       .  S
C394        H396   1.082       .  S
N397        N398   1.314       .  A
N397        C401   1.355       .  A
N397       Cu405   2.075   1_554  S
N398        C399   1.340       .  A
N398       Cu404   2.065       .  S
C399        C400   1.383       .  A
C399        H402   1.082       .  S
C400        C401   1.394       .  A
C400        C833   1.486       .  S
C401        H403   1.082       .  S
Cu404       N407   2.062       .  S
Cu405       N415   2.080       .  S
Cu406       N408   2.120       .  S
Cu406       N414   2.123   1_554  S
N407        N408   1.322       .  A
N407        C411   1.335       .  A
N408        C409   1.360       .  A
C409        C410   1.398       .  A
C409        H412   1.082       .  S
C410        C411   1.376       .  A
C410        C772   1.487       .  S
C411        H413   1.081       .  S
N414        N415   1.324       .  A
N414        C418   1.356       .  A
N415        C416   1.335       .  A
C416        C417   1.382       .  A
C416        H419   1.081       .  S
C417        C418   1.397       .  A
C417        C723   1.491       .  S
C418        H420   1.082   1_556  S
N421        C426   1.367       .  A
N421        C425   1.369       .  A
N421        H453   1.042       .  S
N422        C429   1.352       .  A
N422        C430   1.352       .  A
N423        C428   1.353       .  A
N423        C427   1.345       .  A
N423        H454   1.041       .  S
N424        C431   1.351       .  A
N424        C432   1.357       .  A
C425        C433   1.387       .  A
C425        C441   1.447       .  A
C426        C442   1.445   1_556  A
C426        C434   1.388       .  A
C427        C435   1.382   1_545  A
C427        C444   1.396       .  A
C428        C443   1.408   1_556  A
C428        C436   1.388   1_545  A
C429        C441   1.424       .  A
C429        C437   1.388       .  A
C430        C444   1.404       .  A
C430        C438   1.379       .  A
C431        C439   1.388       .  A
C431        C442   1.423       .  A
C432        C440   1.386       .  A
C432        C443   1.421       .  A
C433        C434   1.388       .  A
C433        H445   1.082       .  S
C434        H446   1.082       .  S
C435        C436   1.366       .  A
C435        H447   1.083       .  S
C436        H448   1.081       .  S
C437        C438   1.379       .  A
C437        H449   1.080       .  S
C438        H450   1.083       .  S
C439        C440   1.368       .  A
C439        H451   1.082       .  S
C440        H452   1.080       .  S
C441        C789   1.532       .  S
C442        C804   1.523       .  S
C443        C834   1.499       .  S
C444        C838   1.481   1_545  S
N455        N456   1.317   1_565  A
N455        C459   1.344       .  A
N455       Cu463   2.061   1_565  S
N456        C457   1.341   1_545  A
N456       Cu462   2.044       .  S
C457        C458   1.380       .  A
C457        H460   1.082       .  S
C458        C459   1.387       .  A
C458        C829   1.469       .  S
C459        H461   1.082       .  S
Cu462       N465   2.047       .  S
Cu463       N473   2.054       .  S
Cu464       N466   2.099       .  S
Cu464       N472   2.098       .  S
N465        N466   1.325       .  A
N465        C469   1.339       .  A
N466        C467   1.348       .  A
C467        C468   1.384       .  A
C467        H470   1.082       .  S
C468        C469   1.375       .  A
C468        C805   1.471       .  S
C469        H471   1.082       .  S
N472        N473   1.320       .  A
N472        C476   1.351       .  A
N473        C474   1.337       .  A
C474        C475   1.383       .  A
C474        H477   1.083   1_545  S
C475        C476   1.393       .  A
C475        C725   1.480   1_554  S
C476        H478   1.082   1_554  S
N479        N480   1.319       .  A
N479        C483   1.344       .  A
N479       Cu487   2.079       .  S
N480        C481   1.341       .  A
N480       Cu486   2.048   1_565  S
C481        C482   1.379       .  A
C481        H484   1.082       .  S
C482        C483   1.383       .  A
C482        C825   1.470       .  S
C483        H485   1.077       .  S
Cu486       N489   2.040       .  S
Cu487       N497   2.070   1_565  S
Cu488       N490   2.105       .  S
Cu488       N496   2.103       .  S
N489        N490   1.322       .  A
N489        C493   1.337       .  A
N490        C491   1.353       .  A
C491        C492   1.392       .  A
C491        H494   1.082       .  S
C492        C493   1.374       .  A
C492        C788   1.477       .  S
C493        H495   1.082       .  S
N496        N497   1.319       .  A
N496        C500   1.358       .  A
N497        C498   1.334   1_545  A
C498        C499   1.389   1_565  A
C498        H501   1.082       .  S
C499        C500   1.399       .  A
C499        C539   1.504   1_545  S
C500        H502   1.081       .  S
N503        C508   1.362       .  A
N503        C507   1.361       .  A
N503        H535   1.041       .  S
N504        C511   1.343       .  A
N504        C512   1.349       .  A
N505        C510   1.344       .  A
N505        C509   1.344       .  A
N505        H536   1.044       .  S
N506        C513   1.342       .  A
N506        C514   1.347       .  A
C507        C515   1.388       .  A
C507        C523   1.437       .  A
C508        C524   1.440       .  A
C508        C516   1.389       .  A
C509        C517   1.387       .  A
C509        C526   1.405       .  A
C510        C525   1.402       .  A
C510        C518   1.387       .  A
C511        C523   1.408       .  A
C511        C519   1.387       .  A
C512        C526   1.402       .  A
C512        C520   1.382       .  A
C513        C521   1.384       .  A
C513        C524   1.403       .  A
C514        C522   1.381       .  A
C514        C525   1.396       .  A
C515        C516   1.395       .  A
C515        H527   1.082       .  S
C516        H528   1.082       .  S
C517        C518   1.375       .  A
C517        H529   1.082       .  S
C518        H530   1.081       .  S
C519        C520   1.382       .  A
C519        H531   1.082       .  S
C520        H532   1.082       .  S
C521        C522   1.383       .  A
C521        H533   1.082       .  S
C522        H534   1.082       .  S
C523        C748   1.511       .  S
C524        C773   1.520       .  S
C525        C830   1.473       .  S
C526        C826   1.483       .  S
C537        C538   1.392       .  A
C537        C542   1.409       .  A
C538        C539   1.405       .  A
C538        H557   1.084       .  S
C539        C540   1.424       .  A
C540        C541   1.430       .  A
C540        C547   1.406   1_565  A
C541        C542   1.423       .  A
C541        C546   1.425   1_655  A
C542        C543   1.399       .  A
C543        C544   1.394   1_655  A
C543        H553   1.083       .  S
C544        C545   1.408       .  A
C544        H554   1.074       .  S
C545        C546   1.428       .  A
C545        C552   1.425       .  A
C546        C549   1.419   1_565  A
C547        C548   1.400       .  A
C547        H555   1.080       .  S
C548        C549   1.405   1_655  A
C548        H556   1.084   1_655  S
C549        C550   1.413       .  A
C550        C551   1.397   1_545  A
C550        C661   1.491       .  S
C551        C552   1.409       .  A
C551        H558   1.084       .  S
C552        C579   1.503       .  S
N559        N560   1.314       .  A
N559        C563   1.335       .  A
N559       Cu567   2.049       .  S
N560        C561   1.346       .  A
N560       Cu566   2.052       .  S
C561        C562   1.389       .  A
C561        H564   1.082       .  S
C562        C563   1.384       .  A
C562        C821   1.474       .  S
C563        H565   1.078       .  S
Cu566       N569   2.049       .  S
Cu567       N577   2.046       .  S
Cu568       N570   2.107       .  S
Cu568       N576   2.099       .  S
N569        N570   1.324       .  A
N569        C573   1.333       .  A
N570        C571   1.355       .  A
C571        C572   1.393       .  A
C571        H574   1.082       .  S
C572        C573   1.374       .  A
C572        C756   1.471       .  S
C573        H575   1.082       .  S
N576        N577   1.317       .  A
N576        C580   1.356       .  A
N577        C578   1.334       .  A
C578        C579   1.385       .  A
C578        H581   1.082       .  S
C579        C580   1.402       .  A
C580        H582   1.081       .  S
N583        N584   1.319       .  A
N583        C587   1.340       .  A
N583       Cu591   2.064       .  S
N584        C585   1.346       .  A
N584       Cu590   2.070   1_554  S
C585        C586   1.391       .  A
C585        H588   1.081       .  S
C586        C587   1.377       .  A
C586        C817   1.475   1_565  S
C587        H589   1.080       .  S
Cu590       N593   2.067   1_556  S
Cu591       N601   2.047       .  S
Cu592       N594   2.119   1_556  S
Cu592       N600   2.112       .  S
N593        N594   1.323       .  A
N593        C597   1.340       .  A
N594        C595   1.356       .  A
C595        C596   1.394       .  A
C595        H598   1.081       .  S
C596        C597   1.380       .  A
C596        C764   1.486       .  S
C597        H599   1.081       .  S
N600        N601   1.318   1_556  A
N600        C604   1.360       .  A
N601        C602   1.332       .  A
C602        C603   1.382   1_554  A
C602        H605   1.082       .  S
C603        C604   1.399       .  A
C603        C738   1.494       .  S
C604        H606   1.082       .  S
N607        C612   1.359       .  A
N607        C611   1.362       .  A
N607        H639   1.040       .  S
N608        C615   1.348       .  A
N608        C616   1.350       .  A
N609        C614   1.350       .  A
N609        C613   1.347       .  A
N609        H640   1.043       .  S
N610        C617   1.344       .  A
N610        C618   1.351       .  A
C611        C619   1.386       .  A
C611        C627   1.431       .  A
C612        C628   1.433       .  A
C612        C620   1.388       .  A
C613        C621   1.389       .  A
C613        C630   1.410       .  A
C614        C629   1.399       .  A
C614        C622   1.383       .  A
C615        C627   1.414       .  A
C615        C623   1.389       .  A
C616        C630   1.404       .  A
C616        C624   1.383       .  A
C617        C625   1.392   1_556  A
C617        C628   1.413       .  A
C618        C626   1.379   1_556  A
C618        C629   1.397       .  A
C619        C620   1.387       .  A
C619        H631   1.082       .  S
C620        H632   1.082       .  S
C621        C622   1.367       .  A
C621        H633   1.077   1_545  S
C622        H634   1.082   1_545  S
C623        C624   1.376       .  A
C623        H635   1.082       .  S
C624        H636   1.082       .  S
C625        C626   1.373       .  A
C625        H637   1.082       .  S
C626        H638   1.082       .  S
C627        C796   1.510       .  S
C628        C781   1.500   1_556  S
C629        C818   1.476   1_556  S
C630        C822   1.483       .  S
N641        N642   1.320       .  A
N641        C645   1.339   1_545  A
N641       Cu649   2.064       .  S
N642        C643   1.349   1_545  A
N642       Cu648   2.063       .  S
C643        C644   1.387       .  A
C643        H646   1.082       .  S
C644        C645   1.377       .  A
C644        C813   1.473       .  S
C645        H647   1.082       .  S
Cu648       N651   2.068       .  S
Cu649       N659   2.056       .  S
Cu650       N652   2.125       .  S
Cu650       N658   2.122       .  S
N651        N652   1.327       .  A
N651        C655   1.344       .  A
N652        C653   1.351       .  A
C653        C654   1.390       .  A
C653        H656   1.082       .  S
C654        C655   1.377       .  A
C654        C797   1.482       .  S
C655        H657   1.082       .  S
N658        N659   1.318       .  A
N658        C662   1.356       .  A
N659        C660   1.341       .  A
C660        C661   1.385       .  A
C660        H663   1.083       .  S
C661        C662   1.401       .  A
C662        H664   1.081       .  S
N665        N666   1.318       .  A
N665        C669   1.344   1_545  A
N665       Cu673   2.062       .  S
N666        C667   1.349   1_545  A
N666       Cu672   2.073       .  S
C667        C668   1.387       .  A
C667        H670   1.082   1_565  S
C668        C669   1.384       .  A
C668        C810   1.480       .  S
C669        H671   1.082       .  S
Cu672       N675   2.076       .  S
Cu673       N683   2.057       .  S
Cu674       N676   2.123       .  S
Cu674       N682   2.120       .  S
N675        N676   1.327       .  A
N675        C679   1.343       .  A
N676        C677   1.354       .  A
C677        C678   1.393       .  A
C677        H680   1.082   1_554  S
C678        C679   1.379       .  A
C678        C780   1.489       .  S
C679        H681   1.082       .  S
N682        N683   1.323       .  A
N682        C686   1.357   1_554  A
N683        C684   1.338       .  A
C684        C685   1.376   1_554  A
C684        H687   1.082       .  S
C685        C686   1.395       .  A
C685        C736   1.486       .  S
C686        H688   1.081       .  S
N689        C694   1.368       .  A
N689        C693   1.368       .  A
N689        H721   1.043       .  S
N690        C697   1.343       .  A
N690        C698   1.352       .  A
N691        C696   1.342       .  A
N691        C695   1.340       .  A
N691        H722   1.044       .  S
N692        C699   1.342       .  A
N692        C700   1.351       .  A
C693        C701   1.391       .  A
C693        C709   1.455       .  A
C694        C710   1.451       .  A
C694        C702   1.389       .  A
C695        C703   1.383       .  A
C695        C712   1.394       .  A
C696        C711   1.410       .  A
C696        C704   1.394       .  A
C697        C709   1.407       .  A
C697        C705   1.384       .  A
C698        C712   1.407       .  A
C698        C706   1.383       .  A
C699        C707   1.385       .  A
C699        C710   1.404       .  A
C700        C708   1.385       .  A
C700        C711   1.411       .  A
C701        C702   1.400       .  A
C701        H713   1.081       .  S
C702        H714   1.082       .  S
C703        C704   1.374       .  A
C703        H715   1.082       .  S
C704        H716   1.078       .  S
C705        C706   1.389       .  A
C705        H717   1.082       .  S
C706        H718   1.082       .  S
C707        C708   1.388       .  A
C707        H719   1.082       .  S
C708        H720   1.082       .  S
C709        C765   1.545       .  S
C710        C757   1.538       .  S
C711        C814   1.486       .  S
C712        C809   1.478       .  S
C723        C724   1.403       .  A
C723        C728   1.420       .  A
C724        C725   1.389   1_565  A
C724        H743   1.085       .  S
C725        C726   1.404       .  A
C726        C727   1.423   1_545  A
C726        C733   1.401       .  A
C727        C728   1.426       .  A
C727        C732   1.420       .  A
C728        C729   1.406       .  A
C729        C730   1.403       .  A
C729        H739   1.082       .  S
C730        C731   1.406   1_655  A
C730        H740   1.083       .  S
C731        C732   1.420   1_455  A
C731        C738   1.416       .  A
C732        C735   1.422   1_665  A
C733        C734   1.390       .  A
C733        H741   1.083       .  S
C734        C735   1.405   1_655  A
C734        H742   1.083   1_655  S
C735        C736   1.413       .  A
C736        C737   1.400   1_545  A
C737        C738   1.411       .  A
C737        H744   1.086       .  S
C745        C746   1.422       .  A
C745        C750   1.400       .  A
C746        C747   1.410       .  A
C747        C748   1.404       .  A
C747        H752   1.084       .  S
C748        C749   1.432       .  A
C749        C750   1.409       .  A
C750        H751   1.085       .  S
C753        C754   1.423       .  A
C753        C758   1.425       .  A
C754        C755   1.389       .  A
C755        C756   1.401       .  A
C755        H760   1.086       .  S
C756        C757   1.441       .  A
C757        C758   1.416       .  A
C758        H759   1.083       .  S
C761        C762   1.422       .  A
C761        C766   1.421       .  A
C762        C763   1.397       .  A
C763        C764   1.408       .  A
C763        H768   1.086   1_554  S
C764        C765   1.449       .  A
C765        C766   1.419       .  A
C766        H767   1.082       .  S
C769        C770   1.424       .  A
C769        C774   1.408       .  A
C770        C771   1.402       .  A
C771        C772   1.410       .  A
C771        H776   1.085   1_554  S
C772        C773   1.441       .  A
C773        C774   1.406       .  A
C774        H775   1.084       .  S
C777        C778   1.442       .  A
C777        C782   1.398       .  A
C778        C779   1.416       .  A
C779        C780   1.419       .  A
C779        H784   1.082       .  S
C780        C781   1.421       .  A
C781        C782   1.391       .  A
C782        H783   1.086   1_554  S
C785        C786   1.444       .  A
C785        C790   1.409       .  A
C786        C787   1.413       .  A
C787        C788   1.427       .  A
C787        H792   1.083       .  S
C788        C789   1.430       .  A
C789        C790   1.396       .  A
C790        H791   1.086       .  S
C793        C794   1.446       .  A
C793        C798   1.417       .  A
C794        C795   1.407       .  A
C795        C796   1.394       .  A
C795        H800   1.085       .  S
C796        C797   1.417       .  A
C797        C798   1.419       .  A
C798        H799   1.083       .  S
C801        C802   1.449       .  A
C801        C806   1.407       .  A
C802        C803   1.413       .  A
C803        C804   1.396       .  A
C803        H808   1.085       .  S
C804        C805   1.422       .  A
C805        C806   1.414       .  A
C806        H807   1.083       .  S
C809        C810   1.351       .  D
C809        H811   1.078       .  S
C810        H812   1.086       .  S
C813        C814   1.338       .  D
C813        H815   1.087       .  S
C814        H816   1.086       .  S
C817        C818   1.337       .  D
C817        H819   1.088       .  S
C818        H820   1.085   1_545  S
C821        C822   1.347   1_565  D
C821        H823   1.087       .  S
C822        H824   1.086       .  S
C825        C826   1.345       .  D
C825        H827   1.088       .  S
C826        H828   1.085       .  S
C829        C830   1.341       .  D
C829        H831   1.087       .  S
C830        H832   1.086       .  S
C833        C834   1.353   1_565  D
C833        H835   1.087       .  S
C834        H836   1.084       .  S
C837        C838   1.348       .  D
C837        H839   1.088       .  S
C838        H840   1.086       .  S
C841        C842   1.339       .  D
C841        H843   1.088       .  S
C842        H844   1.086       .  S
C845        C846   1.340       .  D
C845        H847   1.088       .  S
C846        H848   1.085       .  S
C849        C850   1.349       .  D
C849        H851   1.086       .  S
C850        H852   1.080       .  S
C853        C854   1.348       .  D
C853        H855   1.076       .  S
C854        H856   1.086       .  S
C857        C858   1.348       .  D
C857        H859   1.084       .  S
C858        H860   1.087       .  S
C861        C862   1.345       .  D
C861        H863   1.083       .  S
C862        H864   1.087       .  S
C865        C866   1.340       .  D
C865        H867   1.088       .  S
C866        H868   1.085       .  S
C869        C870   1.346       .  D
C869        H871   1.087       .  S
C870        H872   1.086       .  S
