geometry optimzed in LAMMPS
_audit_creation_date              2020-11-30 
_audit_creation_method            'lammps2cif' 
_symmetry_space_group_name_H-M    'P1' 
_symmetry_Int_Tables_number       1 
_symmetry_cell_setting            triclinic 
loop_ 
_symmetry_equiv_pos_as_xyz 
  x,y,z 
_cell_length_a                    37.38732574 
_cell_length_b                    29.995065787419342 
_cell_length_c                    30.701479750835155 
_cell_angle_alpha                 85.2541901124298 
_cell_angle_beta                  78.82384257154354 
_cell_angle_gamma                 90.0371862668336 
loop_ 
_atom_site_label 
_atom_site_type_symbol 
_atom_site_fract_x 
_atom_site_fract_y 
_atom_site_fract_z 
_atom_site_charge 
O1          O  0.45678487  0.45404933  0.04094227    -0.75200
O2          O  0.03217152  0.04403748  0.02269629    -0.75200
O3          O  0.45905521  0.04360189  0.02841506    -0.75200
O4          O  0.03100656  0.45430801  0.03584975    -0.75300
O5          O  0.03804642  0.45249427  0.46312262    -0.75200
O6          O  0.46798875  0.04413811  0.45250822    -0.75200
O7          O  0.04177753  0.04232603  0.45078968    -0.75200
O8          O  0.46572767  0.45431078  0.46398409    -0.75200
Ni9        Ni  0.49450409  0.49906338  0.03456198     1.25400
Ni10       Ni  0.00377135  0.99833461  0.45490941     1.25400
C11         C  0.44765404  0.44165130  0.50281583     0.87000
C12         C  0.04874386  0.05907796  0.48529797     0.87000
C13         C  0.45133427  0.05606005  0.99054362     0.87000
C14         C  0.04702882  0.43656417  0.00087638     0.87200
O15         O  0.03496971  0.04499952  0.28923115    -0.75200
O16         O  0.45624275  0.46052497  0.29851741    -0.75200
O17         O  0.02988571  0.45515574  0.29722735    -0.75200
O18         O  0.46231928  0.05061405  0.29053550    -0.74500
O19         O  0.47037829  0.04741559  0.21740691    -0.75200
O20         O  0.04113340  0.45647112  0.22320975    -0.75200
O21         O  0.46888183  0.45752575  0.22517556    -0.75200
O22         O  0.04380579  0.04644311  0.21517515    -0.75200
Ni23       Ni  0.49541784  0.50271820  0.29660672     1.25400
Ni24       Ni  0.00640961  0.00204398  0.21766324     1.25400
C25         C  0.05274427  0.05899110  0.25054150     0.87000
C26         C  0.44910101  0.44555777  0.26315020     0.87000
C27         C  0.04793446  0.44159054  0.26096016     0.87000
C28         C  0.45415376  0.06387669  0.25301051     0.87200
O29         O  0.18507808  0.32132809  0.04743712    -0.81600
O30         O  0.32007685  0.19945929  0.01160926    -0.66300
O31         O  0.24918296  0.29243787  0.49747970    -1.12900
C32         C  0.17715774  0.17049036  0.47327872     1.05300
O33         O  0.31036721  0.17203159  0.44779451    -0.79500
O34         O  0.26007062  0.20542895  0.40356200    -0.67100
Ni35       Ni  0.23709510  0.33180757  0.04018974     1.34900
C36         C  0.24517649  0.24270528  0.39717212     0.84000
O37         O  0.32126329  0.28848240  0.01178164    -0.80100
O38         O  0.28775779  0.34781505  0.03435687    -0.90300
C39         C  0.32826589  0.17556372  0.47853315     0.83600
O40         O  0.23784331  0.29399147  0.09346319    -0.68500
O41         O  0.20715402  0.15162348  0.45875487    -0.87800
C42         C  0.25284141  0.25691535  0.10117882     0.84400
C43         C  0.31814615  0.32865012  0.02243175     1.06000
H44         H  0.24037449  0.18556538  0.02704105     0.37800
O45         O  0.24892612  0.20296606  0.99902314    -1.10500
O46         O  0.22514520  0.26195323  0.42818455    -0.67100
Ni47       Ni  0.21165834  0.25141099  0.49223448     1.26300
O48         O  0.27096194  0.23527551  0.07044982    -0.67400
O49         O  0.17480612  0.20908552  0.48772085    -0.79700
C50         C  0.16819913  0.31847357  0.01547916     0.83800
O51         O  0.17757175  0.29730162  0.48773263    -0.66800
Ni52       Ni  0.25818222  0.16468547  0.45492621     1.27400
Ni53       Ni  0.28543725  0.24488177  0.00622926     1.26100
H54         H  0.25739885  0.30929552  0.46916983     0.38300
O55         O  0.18684772  0.32902883  0.29590336    -0.81600
O56         O  0.32174794  0.20817566  0.26600492    -0.66300
O57         O  0.25175858  0.29582327  0.24760813    -1.12900
C58         C  0.18301900  0.16814773  0.22920578     1.05300
O59         O  0.31615052  0.17543245  0.20568615    -0.79500
O60         O  0.26480384  0.20215657  0.15682100    -0.67100
Ni61       Ni  0.23850517  0.33932862  0.29022405     1.34900
C62         C  0.24893283  0.23838919  0.14821235     0.84000
O63         O  0.32293865  0.29688900  0.26242132    -0.80100
O64         O  0.28898457  0.35501263  0.28709373    -0.90300
C65         C  0.33245277  0.18022395  0.23785779     0.83600
O66         O  0.23647886  0.30111540  0.34373513    -0.68500
O67         O  0.21354567  0.14962619  0.21622194    -0.87800
C68         C  0.25155074  0.26422655  0.35138814     0.84400
C69         C  0.31950974  0.33639320  0.27465259     1.06000
H70         H  0.24225273  0.19423159  0.28101124     0.37800
O71         O  0.25109905  0.21026318  0.25227463    -1.10500
O72         O  0.22973374  0.25979141  0.17828717    -0.67100
Ni73       Ni  0.21533843  0.25300567  0.24244822     1.26300
O74         O  0.27210816  0.24455374  0.32127136    -0.67400
O75         O  0.17970543  0.20844835  0.23940540    -0.79700
C76         C  0.17007198  0.32482258  0.26423958     0.83800
O77         O  0.18063464  0.29794503  0.23485116    -0.66800
Ni78       Ni  0.26417026  0.16552477  0.21137912     1.27400
Ni79       Ni  0.28742274  0.25288321  0.25768707     1.26100
H80         H  0.26038457  0.31205584  0.21899437     0.38300
C81         C  0.11159958  0.41862424  0.23046463    -0.02600
C82         C  0.07858006  0.41034799  0.26181056     0.07100
C83         C  0.07580487  0.37298904  0.29371124    -0.02700
C84         C  0.10556343  0.34421049  0.29385752    -0.02700
C85         C  0.13785154  0.35218685  0.26193917     0.07200
C86         C  0.14072874  0.38903725  0.23002638    -0.02900
Br87       Br  0.18555118  0.40014765  0.18688462    -0.01400
Br88       Br  0.11909146  0.47272079  0.19053135    -0.01500
Br89       Br  0.10221283  0.29316019  0.33719467    -0.01500
Br90       Br  0.03143408  0.36008415  0.33683913    -0.01500
C91         C  0.39750868  0.41743426  0.22977132    -0.02600
C92         C  0.41677808  0.41559555  0.26561620     0.07100
C93         C  0.40384170  0.38615995  0.30418814    -0.02700
C94         C  0.37170675  0.36052182  0.30737230    -0.02700
C95         C  0.35286574  0.36309756  0.27193900     0.07200
C96         C  0.36594010  0.39091891  0.23306861    -0.02900
Br97       Br  0.33989862  0.39270883  0.18426187    -0.01400
Br98       Br  0.41196192  0.45740328  0.17623998    -0.01500
Br99       Br  0.35295816  0.32180661  0.36037662    -0.01500
Br100      Br  0.43035556  0.37827970  0.35232075    -0.01500
C101        C  0.42451317  0.12524053  0.21104777    -0.02600
C102        C  0.42460140  0.09717388  0.25074279     0.07100
C103        C  0.39477746  0.09933219  0.28718417    -0.02700
C104        C  0.36480151  0.12657488  0.28268065    -0.02700
C105        C  0.36463750  0.15313671  0.24266313     0.07200
C106        C  0.39495111  0.15350450  0.20756129    -0.02900
Br107      Br  0.39657420  0.19462953  0.15527781    -0.01400
Br108      Br  0.46461741  0.12683550  0.16062397    -0.01500
Br109      Br  0.32255571  0.12520504  0.33068859    -0.01500
Br110      Br  0.39261406  0.06392840  0.34334953    -0.01500
C111        C  0.12160979  0.15400670  0.21182261    -0.02600
C112        C  0.14961417  0.14058832  0.23449654     0.07100
C113        C  0.14523354  0.10130242  0.26373973    -0.02700
C114        C  0.11349612  0.07468098  0.26903285    -0.02700
C115        C  0.08523363  0.08821710  0.24654412     0.07200
C116        C  0.08922813  0.12832057  0.21845858    -0.02900
Br117      Br  0.04984082  0.14948081  0.19061210    -0.01400
Br118      Br  0.12834326  0.20649495  0.17009780    -0.01500
Br119      Br  0.11007762  0.01844111  0.30527591    -0.01500
Br120      Br  0.18203801  0.08477622  0.29822459    -0.01500
C121        C  0.10682200  0.34841111  0.04760830    -0.02600
C122        C  0.13658757  0.34722992  0.01181920     0.07100
C123        C  0.13645671  0.37385166  0.97179865    -0.02700
C124        C  0.10684112  0.40177491  0.96750796    -0.02700
C125        C  0.07702988  0.40410242  0.00386653     0.07200
C126        C  0.07881481  0.38584660  0.54649364    -0.02900
Br127      Br  0.04039391  0.38809971  0.59858901    -0.01400
Br128      Br  0.11077611  0.32575726  0.60713618    -0.01500
Br129      Br  0.10939712  0.43799824  0.91172633    -0.01500
Br130      Br  0.17837503  0.37444501  0.92336533    -0.01500
C131        C  0.40564035  0.37570480  0.04682990    -0.02600
C132        C  0.41435330  0.41016394  0.01183546     0.07100
C133        C  0.39065480  0.41771272  0.98116995    -0.02700
C134        C  0.36010944  0.38967309  0.98392782    -0.02700
C135        C  0.35157332  0.35564064  0.01874170     0.07200
C136        C  0.37416863  0.34866598  0.05024419    -0.02900
Br137      Br  0.36134117  0.30236375  0.09835293    -0.01400
Br138      Br  0.43653628  0.36440183  0.08992613    -0.01500
Br139      Br  0.33020870  0.39709707  0.93908518    -0.01500
Br140      Br  0.39450670  0.47696074  0.43999606    -0.01500
C141        C  0.39282720  0.15454018  0.45023539    -0.02600
C142        C  0.35961706  0.14659929  0.48051517     0.07100
C143        C  0.35569536  0.11006796  0.51290191    -0.02700
C144        C  0.38685125  0.07869685  0.01754326    -0.02700
C145        C  0.41877620  0.08942094  0.48536907     0.07200
C146        C  0.42262793  0.12647829  0.45311972    -0.02900
Br147      Br  0.46913262  0.14074783  0.41460892    -0.01400
Br148      Br  0.39750309  0.20439596  0.40546932    -0.01500
Br149      Br  0.37885490  0.02602182  0.05920687    -0.01500
Br150      Br  0.31068791  0.09525558  0.05368797    -0.01500
C151        C  0.12630926  0.14396849  0.43932932    -0.02600
C152        C  0.14334645  0.14462151  0.47620330     0.07100
C153        C  0.12957438  0.11819681  0.51574929    -0.02700
C154        C  0.09932266  0.08968863  0.51833657    -0.02700
C155        C  0.08111405  0.08926017  0.48171071     0.07200
C156        C  0.09525648  0.11642875  0.44179603    -0.02900
Br157      Br  0.07442310  0.11325023  0.88874514    -0.01400
Br158      Br  0.14582524  0.18131851  0.38560281    -0.01500
Br159      Br  0.08659103  0.04819513  0.57105221    -0.01500
Br160      Br  0.15314073  0.12056296  0.56640082    -0.01500
O161        O  0.45579217  0.45634139  0.53775878    -0.75200
O162        O  0.02885595  0.04851496  0.52362635    -0.75200
O163        O  0.45630469  0.04606275  0.52628412    -0.75200
O164        O  0.02933349  0.45881395  0.53570986    -0.75300
O165        O  0.03813262  0.44764155  0.96327691    -0.75200
O166        O  0.46861674  0.04057827  0.95478374    -0.75200
O167        O  0.04288600  0.03742180  0.94986440    -0.75200
O168        O  0.46525957  0.45063979  0.96753025    -0.75200
Ni169      Ni  0.49221772  0.50247026  0.53347314     1.25400
Ni170      Ni  0.00399352  0.99404623  0.95621583     1.25400
C171        C  0.44741779  0.43907717  0.00680364     0.87000
C172        C  0.05133976  0.05390393  0.98375226     0.87000
C173        C  0.44949334  0.05880390  0.48800997     0.87000
C174        C  0.04626032  0.44135650  0.50106790     0.87200
O175        O  0.03651995  0.04336573  0.78683172    -0.75200
O176        O  0.45781630  0.45824790  0.79798994    -0.75200
O177        O  0.03164283  0.45348101  0.79612839    -0.75200
O178        O  0.46335543  0.04829325  0.78826045    -0.74500
O179        O  0.47231455  0.04478967  0.71498001    -0.75200
O180        O  0.04135370  0.45240044  0.72250927    -0.75200
O181        O  0.46931813  0.45521984  0.72452905    -0.75200
O182        O  0.04588236  0.04257356  0.71293479    -0.75200
Ni183      Ni  0.49692910  0.50083584  0.79504542     1.25400
Ni184      Ni  0.00762388  0.99883270  0.71618668     1.25400
C185        C  0.05471062  0.05615300  0.74799307     0.87000
C186        C  0.44999001  0.44349880  0.76286945     0.87000
C187        C  0.04884123  0.43844791  0.76011466     0.87000
C188        C  0.45539526  0.06091489  0.75038667     0.87200
O189        O  0.18588560  0.32744756  0.54831699    -0.81600
O190        O  0.31912347  0.20237511  0.50832077    -0.66300
O191        O  0.24964456  0.28823555  0.99802237    -1.12900
C192        C  0.18082728  0.16431577  0.97061450     1.05300
O193        O  0.31390856  0.17121559  0.94905474    -0.79500
O194        O  0.26339942  0.20167197  0.90299866    -0.67100
Ni195      Ni  0.23815124  0.33559650  0.54045750     1.34900
C196        C  0.24788470  0.23852075  0.89649418     0.84000
O197        O  0.32157705  0.29138750  0.50724881    -0.80100
O198        O  0.28910557  0.34991262  0.53394321    -0.90300
C199        C  0.33065236  0.17382355  0.98106232     0.83600
O200        O  0.23852109  0.29637218  0.59307074    -0.68500
O201        O  0.21142399  0.14609539  0.95735851    -0.87800
C202        C  0.25403922  0.25940794  0.59982585     0.84400
C203        C  0.31910072  0.33106328  0.51928722     1.06000
H204        H  0.23901880  0.18995982  0.52752606     0.37800
O205        O  0.24715232  0.20701663  0.49907797    -1.10500
O206        O  0.22757812  0.25749922  0.92743350    -0.67100
Ni207      Ni  0.21302753  0.24644014  0.99118695     1.26300
O208        O  0.27232700  0.23884249  0.56840754    -0.67400
O209        O  0.17736872  0.20307777  0.98479536    -0.79700
C210        C  0.16841250  0.32472746  0.51689770     0.83800
O211        O  0.17833456  0.29163744  0.98595542    -0.66800
Ni212      Ni  0.26202292  0.16128070  0.95466183     1.27400
Ni213      Ni  0.28477561  0.24831717  0.50405719     1.26100
H214        H  0.25845044  0.30499731  0.96971296     0.38300
O215        O  0.18809655  0.32537006  0.79670942    -0.81600
O216        O  0.32355098  0.20516023  0.76395581    -0.66300
O217        O  0.25324077  0.29325819  0.74748875    -1.12900
C218        C  0.18505918  0.16615930  0.72598986     1.05300
O219        O  0.31814926  0.17507068  0.70214756    -0.79500
O220        O  0.26666408  0.20311705  0.65387671    -0.67100
Ni221      Ni  0.23978311  0.33596132  0.79081119     1.34900
C222        C  0.25045210  0.23942368  0.64642640     0.84000
O223        O  0.32447988  0.29412600  0.76261974    -0.80100
O224        O  0.29016741  0.35195107  0.78745378    -0.90300
C225        C  0.33410445  0.17796944  0.73494958     0.83600
O226        O  0.23850553  0.29702646  0.84367404    -0.68500
O227        O  0.21571330  0.14831619  0.71197524    -0.87800
C228        C  0.25371278  0.26007702  0.85075761     0.84400
C229        C  0.32080813  0.33358964  0.77503710     1.06000
H230        H  0.24432405  0.19093035  0.77828919     0.37800
O231        O  0.25301575  0.20782964  0.74997471    -1.10500
O232        O  0.23101586  0.25952317  0.67731408    -0.67100
Ni233      Ni  0.21697545  0.25057785  0.74142860     1.26300
O234        O  0.27385647  0.24051764  0.82019301    -0.67400
O235        O  0.18154178  0.20605021  0.73738990    -0.79700
C236        C  0.17125076  0.32159385  0.76500624     0.83800
O237        O  0.18196378  0.29528294  0.73516224    -0.66800
Ni238      Ni  0.26629025  0.16468998  0.70741252     1.27400
Ni239      Ni  0.28914360  0.25021677  0.75665854     1.26100
H240        H  0.26183046  0.31002016  0.71915051     0.38300
C241        C  0.11022940  0.40990404  0.72569350    -0.02600
C242        C  0.07919738  0.40643189  0.76096387     0.07100
C243        C  0.07842696  0.37339106  0.79699767    -0.02700
C244        C  0.10830000  0.34490924  0.79789845    -0.02700
C245        C  0.13882919  0.34879127  0.76283114     0.07200
C246        C  0.13959119  0.38086660  0.72659192    -0.02900
Br247      Br  0.18235869  0.38716282  0.67934999    -0.01400
Br248      Br  0.11521351  0.45658635  0.67717794    -0.01500
Br249      Br  0.10725766  0.29949233  0.84663894    -0.01500
Br250      Br  0.03653410  0.36540877  0.84494984    -0.01500
C251        C  0.39563434  0.41957905  0.73271548    -0.02600
C252        C  0.41736160  0.41410341  0.76595882     0.07100
C253        C  0.40693552  0.38125405  0.80225414    -0.02700
C254        C  0.37553372  0.35433746  0.80497670    -0.02700
C255        C  0.35391933  0.36081182  0.77240203     0.07200
C256        C  0.36384150  0.39339662  0.73649203    -0.02900
Br257      Br  0.33351686  0.40181056  0.69210577    -0.01400
Br258      Br  0.40752356  0.46381423  0.68219209    -0.01500
Br259      Br  0.36158577  0.30864310  0.85346832    -0.01500
Br260      Br  0.43581470  0.37113886  0.84777931    -0.01500
C261        C  0.42635523  0.12332478  0.70913065    -0.02600
C262        C  0.42515600  0.09290962  0.74746478     0.07100
C263        C  0.39341863  0.09112195  0.78163866    -0.02700
C264        C  0.36393537  0.11937856  0.77752170    -0.02700
C265        C  0.36563147  0.14957265  0.73946149     0.07200
C266        C  0.39698082  0.15190229  0.70570720    -0.02900
Br267      Br  0.40012917  0.19585593  0.65536807    -0.01400
Br268      Br  0.46751636  0.12674303  0.66005333    -0.01500
Br269      Br  0.31996861  0.11478182  0.82300382    -0.01500
Br270      Br  0.38775853  0.04734810  0.83259424    -0.01500
C271        C  0.12351712  0.15158881  0.70894511    -0.02600
C272        C  0.15176942  0.13822540  0.73122220     0.07100
C273        C  0.14760235  0.09881590  0.76033414    -0.02700
C274        C  0.11589753  0.07197641  0.76575112    -0.02700
C275        C  0.08741768  0.08538402  0.74356145     0.07200
C276        C  0.09121173  0.12565945  0.71572933    -0.02900
Br277      Br  0.05154809  0.14689678  0.68865907    -0.01400
Br278      Br  0.12966516  0.20460907  0.66782898    -0.01500
Br279      Br  0.11268645  0.01567767  0.80181643    -0.01500
Br280      Br  0.18461770  0.08257115  0.79458255    -0.01500
C281        C  0.10888149  0.35849962  0.55062982    -0.02600
C282        C  0.13695865  0.35391986  0.51351169     0.07100
C283        C  0.13493790  0.37684426  0.47207081    -0.02700
C284        C  0.10479892  0.40363647  0.46734180    -0.02700
C285        C  0.07654696  0.40931703  0.50482247     0.07200
C286        C  0.07726271  0.37672488  0.04389850    -0.02900
Br287      Br  0.03680599  0.37562580  0.09397102    -0.01400
Br288      Br  0.10573244  0.30951089  0.10123986    -0.01500
Br289      Br  0.10438592  0.43258673  0.40856507    -0.01500
Br290      Br  0.17514980  0.37432388  0.42178227    -0.01500
C291        C  0.40987052  0.37376929  0.53747433    -0.02600
C292        C  0.41551154  0.41196946  0.50665794     0.07100
C293        C  0.38950480  0.42287516  0.47976738    -0.02700
C294        C  0.35842986  0.39558989  0.48338411    -0.02700
C295        C  0.35271035  0.35782640  0.51444019     0.07200
C296        C  0.37844313  0.34672106  0.54127355    -0.02900
Br297      Br  0.36970762  0.29536632  0.58431312    -0.01400
Br298      Br  0.44528513  0.35764630  0.57385208    -0.01500
Br299      Br  0.32380201  0.40966404  0.44512706    -0.01500
Br300      Br  0.39727559  0.46892493  0.93751648    -0.01500
C301        C  0.39595507  0.15399625  0.95491850    -0.02600
C302        C  0.36210122  0.14505937  0.98368238     0.07100
C303        C  0.35764211  0.10764923  0.01510381    -0.02700
C304        C  0.38492813  0.08113266  0.51505996    -0.02700
C305        C  0.42097804  0.08737335  0.98863210     0.07200
C306        C  0.42550684  0.12547111  0.95769898    -0.02900
Br307      Br  0.47265974  0.14024617  0.92099012    -0.01400
Br308      Br  0.40194107  0.20585748  0.91251120    -0.01500
Br309      Br  0.37710924  0.02881974  0.55727986    -0.01500
Br310      Br  0.30942922  0.09891235  0.55337325    -0.01500
C311        C  0.12953891  0.13801308  0.93670849    -0.02600
C312        C  0.14755020  0.13734748  0.97292635     0.07100
C313        C  0.13476597  0.10929761  0.01169158    -0.02700
C314        C  0.10438322  0.08101328  0.01430397    -0.02700
C315        C  0.08468746  0.08274909  0.97896550     0.07200
C316        C  0.09807968  0.11094144  0.93953427    -0.02900
Br317      Br  0.07338914  0.11666993  0.38961739    -0.01400
Br318      Br  0.14824811  0.17638850  0.88344308    -0.01500
Br319      Br  0.09333384  0.03676553  0.06495198    -0.01500
Br320      Br  0.15942242  0.10969027  0.06158391    -0.01500
O321        O  0.45678437  0.95405307  0.04095401    -0.75200
O322        O  0.03216555  0.54403532  0.02270311    -0.75200
O323        O  0.45904818  0.54359777  0.02840826    -0.75200
O324        O  0.03101014  0.95431165  0.03584592    -0.75300
O325        O  0.03805168  0.95249694  0.46309260    -0.75200
O326        O  0.46798270  0.54413544  0.45253082    -0.75200
O327        O  0.04176837  0.54232221  0.45081695    -0.75200
O328        O  0.46573024  0.95431286  0.46396064    -0.75200
Ni329      Ni  0.49450801  0.99906357  0.03456551     1.25400
Ni330      Ni  0.00376470  0.49832766  0.45493683     1.25400
C331        C  0.44765875  0.94165226  0.50279327     0.87000
C332        C  0.04873306  0.55907646  0.48532495     0.87000
C333        C  0.45133211  0.55605862  0.99053470     0.87000
C334        C  0.04702767  0.93656497  0.00087247     0.87200
O335        O  0.03496706  0.54499754  0.28923208    -0.75200
O336        O  0.45624349  0.96052452  0.29852404    -0.75200
O337        O  0.02988480  0.95515712  0.29723358    -0.75200
O338        O  0.46231720  0.55061445  0.29053652    -0.74500
O339        O  0.47037886  0.54742324  0.21740641    -0.75200
O340        O  0.04113296  0.95646936  0.22321560    -0.75200
O341        O  0.46888235  0.95751735  0.22518346    -0.75200
O342        O  0.04380506  0.54644673  0.21517530    -0.75200
Ni343      Ni  0.49541933  0.00271771  0.29660833     1.25400
Ni344      Ni  0.00641015  0.50204635  0.21765870     1.25400
C345        C  0.05274161  0.55899263  0.25054358     0.87000
C346        C  0.44910138  0.94555295  0.26315908     0.87000
C347        C  0.04793336  0.94159064  0.26096685     0.87000
C348        C  0.45415234  0.56387958  0.25301173     0.87200
O349        O  0.18507623  0.82133572  0.04743621    -0.81600
O350        O  0.32007797  0.69946398  0.01161142    -0.66300
O351        O  0.24918070  0.79243486  0.49748053    -1.12900
C352        C  0.17715065  0.67048459  0.47329677     1.05300
O353        O  0.31036041  0.67201789  0.44780600    -0.79500
O354        O  0.26006651  0.70542018  0.40357295    -0.67100
Ni355      Ni  0.23709294  0.83181101  0.04019814     1.34900
C356        C  0.24517035  0.74269498  0.39718244     0.84000
O357        O  0.32126268  0.78848731  0.01178924    -0.80100
O358        O  0.28775521  0.84781526  0.03437451    -0.90300
C359        C  0.32826109  0.67555690  0.47854150     0.83600
O360        O  0.23783515  0.79399075  0.09347052    -0.68500
O361        O  0.20714613  0.65161879  0.45876735    -0.87800
C362        C  0.25283737  0.75691744  0.10118613     0.84400
C363        C  0.31814411  0.82865254  0.02244630     1.06000
H364        H  0.24037291  0.68557280  0.02704599     0.37800
O365        O  0.24892584  0.70297249  0.99902762    -1.10500
O366        O  0.22513703  0.76194117  0.42819425    -0.67100
Ni367      Ni  0.21165489  0.75140529  0.49224460     1.26300
O368        O  0.27096204  0.73528069  0.07045691    -0.67400
O369        O  0.17480088  0.70907849  0.48774120    -0.79700
C370        C  0.16820012  0.81848049  0.01547568     0.83800
O371        O  0.17756886  0.79729383  0.48773825    -0.66800
Ni372      Ni  0.25817514  0.66467744  0.45493847     1.27400
Ni373      Ni  0.28543726  0.74488722  0.00623529     1.26100
H374        H  0.25739451  0.80929037  0.46916892     0.38300
O375        O  0.18684525  0.82903200  0.29591404    -0.81600
O376        O  0.32174322  0.70817094  0.26601465    -0.66300
O377        O  0.25175656  0.79582326  0.24761991    -1.12900
C378        C  0.18301374  0.66815210  0.22921306     1.05300
O379        O  0.31614555  0.67543120  0.20569384    -0.79500
O380        O  0.26480001  0.70215873  0.15682835    -0.67100
Ni381      Ni  0.23850337  0.83932570  0.29023948     1.34900
C382        C  0.24892914  0.73839146  0.14822013     0.84000
O383        O  0.32293660  0.79688433  0.26243435    -0.80100
O384        O  0.28898320  0.85500525  0.28711500    -0.90300
C385        C  0.33244777  0.68022082  0.23786584     0.83600
O386        O  0.23647246  0.80110664  0.34374757    -0.68500
O387        O  0.21354003  0.64963031  0.21622740    -0.87800
C388        C  0.25154520  0.76421808  0.35139923     0.84400
C389        C  0.31950826  0.83638661  0.27467080     1.06000
H390        H  0.24224786  0.69423075  0.28101912     0.37800
O391        O  0.25109487  0.71026311  0.25228317    -1.10500
O392        O  0.22973093  0.75979398  0.17829577    -0.67100
Ni393      Ni  0.21533561  0.75300758  0.24245760     1.26300
O394        O  0.27210478  0.74454822  0.32128211    -0.67400
O395        O  0.17970136  0.70845218  0.23941448    -0.79700
C396        C  0.17007021  0.82482566  0.26424959     0.83800
O397        O  0.18063310  0.79794847  0.23486102    -0.66800
Ni398      Ni  0.26416505  0.66552595  0.21138600     1.27400
Ni399      Ni  0.28741953  0.75288072  0.25769793     1.26100
H400        H  0.26038305  0.81205716  0.21900678     0.38300
C401        C  0.11160577  0.91864251  0.23049048    -0.02600
C402        C  0.07857901  0.91034993  0.26181846     0.07100
C403        C  0.07579505  0.87297462  0.29370018    -0.02700
C404        C  0.10555309  0.84419499  0.29384539    -0.02700
C405        C  0.13785074  0.85219080  0.26194746     0.07200
C406        C  0.14073639  0.88905818  0.23005336    -0.02900
Br407      Br  0.18556990  0.90019107  0.18693671    -0.01400
Br408      Br  0.11910118  0.97275409  0.19057953    -0.01500
Br409      Br  0.10218869  0.79311630  0.33715043    -0.01500
Br410      Br  0.03141209  0.86005010  0.33680066    -0.01500
C411        C  0.39751322  0.91741660  0.22977974    -0.02600
C412        C  0.41677781  0.91558992  0.26562883     0.07100
C413        C  0.40383517  0.88616660  0.30420853    -0.02700
C414        C  0.37169853  0.86053050  0.30739592    -0.02700
C415        C  0.35286466  0.86309104  0.27195624     0.07200
C416        C  0.36594588  0.89089858  0.23307833    -0.02900
Br417      Br  0.33991397  0.89266799  0.18426368    -0.01400
Br418      Br  0.41196952  0.95737466  0.17624099    -0.01500
Br419      Br  0.35293804  0.82183896  0.36041324    -0.01500
Br420      Br  0.43034199  0.87829969  0.35234884    -0.01500
C421        C  0.42451344  0.62525088  0.21105750    -0.02600
C422        C  0.42459782  0.59717339  0.25074636     0.07100
C423        C  0.39476779  0.59931631  0.28718270    -0.02700
C424        C  0.36479184  0.62655953  0.28268116    -0.02700
C425        C  0.36463226  0.65313325  0.24266965     0.07200
C426        C  0.39495000  0.65351273  0.20757233    -0.02900
Br427      Br  0.39657585  0.69464948  0.15529707    -0.01400
Br428      Br  0.46462403  0.62686167  0.16064044    -0.01500
Br429      Br  0.32254037  0.62517527  0.33068220    -0.01500
Br430      Br  0.39259528  0.56388683  0.34333533    -0.01500
C431        C  0.12159519  0.65402366  0.21184894    -0.02600
C432        C  0.14960826  0.64059327  0.23450424     0.07100
C433        C  0.14523533  0.60129533  0.26373087    -0.02700
C434        C  0.11349962  0.57467170  0.26902003    -0.02700
C435        C  0.08522931  0.58821972  0.24654999     0.07200
C436        C  0.08921335  0.62833760  0.21848740    -0.02900
Br437      Br  0.04981030  0.64951756  0.19068069    -0.01400
Br438      Br  0.12831617  0.70652753  0.17014449    -0.01500
Br439      Br  0.11009232  0.51841427  0.30523231    -0.01500
Br440      Br  0.18204608  0.58475616  0.29820224    -0.01500
C441        C  0.10682633  0.84842246  0.04760780    -0.02600
C442        C  0.13658687  0.84723285  0.01181384     0.07100
C443        C  0.13644888  0.87384191  0.97178738    -0.02700
C444        C  0.10683194  0.90176262  0.96749672    -0.02700
C445        C  0.07702736  0.90410148  0.00386130     0.07200
C446        C  0.07881452  0.88584991  0.54647363    -0.02900
Br447      Br  0.04039363  0.88811160  0.59856807    -0.01400
Br448      Br  0.11077822  0.82578196  0.60713193    -0.01500
Br449      Br  0.10937758  0.93796662  0.91170555    -0.01500
Br450      Br  0.17835916  0.87442291  0.92334434    -0.01500
C451        C  0.40564185  0.87570124  0.04683973    -0.02600
C452        C  0.41434836  0.91016859  0.01185303     0.07100
C453        C  0.39064580  0.91772340  0.98119337    -0.02700
C454        C  0.36010202  0.88968212  0.98394929    -0.02700
C455        C  0.35157006  0.85564414  0.01875818     0.07200
C456        C  0.37416995  0.84866271  0.05025474    -0.02900
Br457      Br  0.36135031  0.80234948  0.09835386    -0.01400
Br458      Br  0.43654979  0.86438376  0.08991972    -0.01500
Br459      Br  0.33020099  0.89710722  0.93910693    -0.01500
Br460      Br  0.39448667  0.97699169  0.44002164    -0.01500
C461        C  0.39282615  0.65454271  0.45025907    -0.02600
C462        C  0.35961103  0.64659266  0.48052658     0.07100
C463        C  0.35568340  0.61005315  0.51290431    -0.02700
C464        C  0.38684439  0.57868639  0.01751960    -0.02700
C465        C  0.41876835  0.58941529  0.48538681     0.07200
C466        C  0.42262571  0.62648006  0.45314594    -0.02900
Br467      Br  0.46913565  0.64075663  0.41465013    -0.01400
Br468      Br  0.39750979  0.70441153  0.40550674    -0.01500
Br469      Br  0.37884119  0.52599571  0.05916176    -0.01500
Br470      Br  0.31067812  0.59523969  0.05365442    -0.01500
C471        C  0.12629982  0.64396282  0.43935145    -0.02600
C472        C  0.14333831  0.64461674  0.47622427     0.07100
C473        C  0.12956499  0.61819629  0.51577270    -0.02700
C474        C  0.09931010  0.58969209  0.51836404    -0.02700
C475        C  0.08110228  0.58926007  0.48173756     0.07200
C476        C  0.09524567  0.61642495  0.44182084    -0.02900
Br477      Br  0.07442876  0.61324064  0.88874948    -0.01400
Br478      Br  0.14581601  0.68130890  0.38562240    -0.01500
Br479      Br  0.08657163  0.54821065  0.57108820    -0.01500
Br480      Br  0.15313499  0.62056135  0.56642136    -0.01500
O481        O  0.45579854  0.95634183  0.53773575    -0.75200
O482        O  0.02884476  0.54851410  0.52365299    -0.75200
O483        O  0.45629453  0.54606017  0.52630703    -0.75200
O484        O  0.02934063  0.95881459  0.53567971    -0.75300
O485        O  0.03812804  0.94764132  0.96327474    -0.75200
O486        O  0.46862042  0.54058098  0.95477563    -0.75200
O487        O  0.04288686  0.53742278  0.94987118    -0.75200
O488        O  0.46525317  0.95063846  0.96754270    -0.75200
Ni489      Ni  0.49222592  0.00247001  0.53344819     1.25400
Ni490      Ni  0.00399661  0.49404413  0.95621522     1.25400
C491        C  0.44741385  0.93907944  0.00681787     0.87000
C492        C  0.05133638  0.55390528  0.98376147     0.87000
C493        C  0.44948512  0.55880014  0.48803153     0.87000
C494        C  0.04626411  0.94135456  0.50103810     0.87200
O495        O  0.03651636  0.54336231  0.78685262    -0.75200
O496        O  0.45781927  0.95825116  0.79797366    -0.75200
O497        O  0.03164588  0.95348527  0.79610594    -0.75200
O498        O  0.46335181  0.54829081  0.78827768    -0.74500
O499        O  0.47230952  0.54478434  0.71499783    -0.75200
O500        O  0.04135166  0.95240012  0.72248828    -0.75200
O501        O  0.46931573  0.95522593  0.72451237    -0.75200
O502        O  0.04587680  0.54257409  0.71295530    -0.75200
Ni503      Ni  0.49693253  0.00083840  0.79502742     1.25400
Ni504      Ni  0.00762230  0.49882899  0.71620701     1.25400
C505        C  0.05470497  0.55615305  0.74801362     0.87000
C506        C  0.44998987  0.94350395  0.76285408     0.87000
C507        C  0.04884110  0.93844832  0.76009257     0.87000
C508        C  0.45539096  0.56091138  0.75040399     0.87200
O509        O  0.18588559  0.82745756  0.54831244    -0.81600
O510        O  0.31912193  0.70237441  0.50832377    -0.66300
O511        O  0.24964487  0.78824156  0.99802877    -1.12900
C512        C  0.18082631  0.66431928  0.97062260     1.05300
O513        O  0.31390752  0.67122847  0.94905384    -0.79500
O514        O  0.26339162  0.70166985  0.90300094    -0.67100
Ni515      Ni  0.23815230  0.83559691  0.54045607     1.34900
C516        C  0.24788371  0.73852341  0.89649582     0.84000
O517        O  0.32157756  0.79138721  0.50723912    -0.80100
O518        O  0.28910782  0.84990838  0.53394415    -0.90300
C519        C  0.33065321  0.67383218  0.98106044     0.83600
O520        O  0.23851659  0.79637097  0.59307040    -0.68500
O521        O  0.21142232  0.64609381  0.95737397    -0.87800
C522        C  0.25403786  0.75940904  0.59982689     0.84400
C523        C  0.31910266  0.83106185  0.51928062     1.06000
H524        H  0.23901799  0.68995743  0.52753804     0.37800
O525        O  0.24714938  0.70701203  0.49908829    -1.10500
O526        O  0.22758368  0.75750815  0.92743568    -0.67100
Ni527      Ni  0.21302881  0.74644708  0.99118841     1.26300
O528        O  0.27232995  0.73884635  0.56840939    -0.67400
O529        O  0.17736989  0.70308599  0.98479290    -0.79700
C530        C  0.16841193  0.82472830  0.51689481     0.83800
O531        O  0.17833772  0.79164431  0.98595303    -0.66800
Ni532      Ni  0.26202189  0.66128513  0.95466827     1.27400
Ni533      Ni  0.28477409  0.74831510  0.50405817     1.26100
H534        H  0.25845170  0.80500487  0.96972058     0.38300
O535        O  0.18809842  0.82537596  0.79670843    -0.81600
O536        O  0.32354586  0.70515408  0.76395818    -0.66300
O537        O  0.25324071  0.79325719  0.74748781    -1.12900
C538        C  0.18505142  0.66616395  0.72599490     1.05300
O539        O  0.31814277  0.67505986  0.70215248    -0.79500
O540        O  0.26666055  0.70311661  0.65387893    -0.67100
Ni541      Ni  0.23978586  0.83596271  0.79080849     1.34900
C542        C  0.25044926  0.73942381  0.64642785     0.84000
O543        O  0.32448049  0.79412055  0.76261735    -0.80100
O544        O  0.29017106  0.85194932  0.78744771    -0.90300
C545        C  0.33409800  0.67796044  0.73495439     0.83600
O546        O  0.23850783  0.79702950  0.84367320    -0.68500
O547        O  0.21570439  0.64831947  0.71197739    -0.87800
C548        C  0.25371236  0.76007829  0.85075807     0.84400
C549        C  0.32081086  0.83358597  0.77503074     1.06000
H550        H  0.24431887  0.69092998  0.77829174     0.37800
O551        O  0.25301110  0.70782839  0.74997690    -1.10500
O552        O  0.23101222  0.75952293  0.67731518    -0.67100
Ni553      Ni  0.21697296  0.75057949  0.74143014     1.26300
O554        O  0.27385396  0.74051617  0.82019384    -0.67400
O555        O  0.18153624  0.70605491  0.73739470    -0.79700
C556        C  0.17125226  0.82159944  0.76500557     0.83800
O557        O  0.18196400  0.79528675  0.73516301    -0.66800
Ni558      Ni  0.26628261  0.66468751  0.70741522     1.27400
Ni559      Ni  0.28914125  0.75021314  0.75665896     1.26100
H560        H  0.26183099  0.81001776  0.71914886     0.38300
C561        C  0.11022148  0.90988231  0.72566269    -0.02600
C562        C  0.07919525  0.90642836  0.76094245     0.07100
C563        C  0.07843094  0.87340520  0.79699070    -0.02700
C564        C  0.10830464  0.84492599  0.79789830    -0.02700
C565        C  0.13883144  0.84879758  0.76282770     0.07200
C566        C  0.13958872  0.88085614  0.72657566    -0.02900
Br567      Br  0.18235953  0.88714959  0.67933746    -0.01400
Br568      Br  0.11518907  0.95651780  0.67710470    -0.01500
Br569      Br  0.10726610  0.79952636  0.84665340    -0.01500
Br570      Br  0.03654400  0.86543995  0.84495350    -0.01500
C571        C  0.39562905  0.91958691  0.73270897    -0.02600
C572        C  0.41736116  0.91410825  0.76594674     0.07100
C573        C  0.40694046  0.88125448  0.80223925    -0.02700
C574        C  0.37554173  0.85433242  0.80496119    -0.02700
C575        C  0.35392293  0.86080840  0.77239136     0.07200
C576        C  0.36383827  0.89340026  0.73648610    -0.02900
Br577      Br  0.33350730  0.90181830  0.69210715    -0.01400
Br578      Br  0.40750766  0.96383490  0.68219541    -0.01500
Br579      Br  0.36160345  0.80862932  0.85344641    -0.01500
Br580      Br  0.43582036  0.87114468  0.84776457    -0.01500
C581        C  0.42635071  0.62331825  0.70914382    -0.02600
C582        C  0.42515206  0.59290722  0.74748098     0.07100
C583        C  0.39341533  0.59112426  0.78165586    -0.02700
C584        C  0.36393018  0.61937621  0.77753344    -0.02700
C585        C  0.36562494  0.64956401  0.73946883     0.07200
C586        C  0.39697492  0.65189222  0.70571564    -0.02900
Br587      Br  0.40012211  0.69583935  0.65537133    -0.01400
Br588      Br  0.46751442  0.62673820  0.66006998    -0.01500
Br589      Br  0.31996257  0.61478128  0.82301441    -0.01500
Br590      Br  0.38775990  0.54736638  0.83262380    -0.01500
C591        C  0.12350622  0.65159252  0.70895932    -0.02600
C592        C  0.15176084  0.63823081  0.73123304     0.07100
C593        C  0.14759566  0.59882322  0.76034756    -0.02700
C594        C  0.11589339  0.57197958  0.76576413    -0.02700
C595        C  0.08741013  0.58538704  0.74358067     0.07200
C596        C  0.09119985  0.62566415  0.71575124    -0.02900
Br597      Br  0.05152890  0.64690560  0.68869700    -0.01400
Br598      Br  0.12965258  0.70460806  0.66783698    -0.01500
Br599      Br  0.11269186  0.51567401  0.80181671    -0.01500
Br600      Br  0.18460872  0.58258840  0.79460226    -0.01500
C601        C  0.10888171  0.85850679  0.55061727    -0.02600
C602        C  0.13695807  0.85391790  0.51350098     0.07100
C603        C  0.13493361  0.87682438  0.47205275    -0.02700
C604        C  0.10479217  0.90360891  0.46731539    -0.02700
C605        C  0.07654520  0.90930733  0.50479630     0.07200
C606        C  0.07726667  0.87673516  0.04389861    -0.02900
Br607      Br  0.03681947  0.87565049  0.09398180    -0.01400
Br608      Br  0.10574324  0.80953407  0.10124600    -0.01500
Br609      Br  0.10436549  0.93251538  0.40852460    -0.01500
Br610      Br  0.17514374  0.87429106  0.42176415    -0.01500
C611        C  0.40989064  0.87375209  0.53743078    -0.02600
C612        C  0.41551634  0.91196989  0.50663730     0.07100
C613        C  0.38949622  0.92289078  0.47977011    -0.02700
C614        C  0.35841973  0.89560662  0.48339153    -0.02700
C615        C  0.35271310  0.85782687  0.51442862     0.07200
C616        C  0.37846223  0.84670403  0.54123519    -0.02900
Br617      Br  0.36974884  0.79532526  0.58424642    -0.01400
Br618      Br  0.44533036  0.85760403  0.57376535    -0.01500
Br619      Br  0.32377442  0.90970318  0.44516309    -0.01500
Br620      Br  0.39726157  0.96894264  0.93754824    -0.01500
C621        C  0.39595845  0.65400752  0.95492161    -0.02600
C622        C  0.36210110  0.64506420  0.98367642     0.07100
C623        C  0.35763680  0.60764232  0.01508366    -0.02700
C624        C  0.38491570  0.58111815  0.51506516    -0.02700
C625        C  0.42097525  0.58737093  0.98861994     0.07200
C626        C  0.42550863  0.62547813  0.95769854    -0.02900
Br627      Br  0.47266514  0.64025851  0.92100102    -0.01400
Br628      Br  0.40195139  0.70588292  0.91253214    -0.01500
Br629      Br  0.37709148  0.52879402  0.55726998    -0.01500
Br630      Br  0.30941131  0.59888894  0.55336099    -0.01500
C631        C  0.12954189  0.63800700  0.93671455    -0.02600
C632        C  0.14754660  0.63735385  0.97293736     0.07100
C633        C  0.13475053  0.60932327  0.01171276    -0.02700
C634        C  0.10436719  0.58103858  0.01432744    -0.02700
C635        C  0.08468116  0.58275671  0.97897955     0.07200
C636        C  0.09808063  0.61093819  0.93954253    -0.02900
Br637      Br  0.07337741  0.61666412  0.38964284    -0.01400
Br638      Br  0.14826162  0.67636453  0.88343990    -0.01500
Br639      Br  0.09330367  0.53681700  0.06499669    -0.01500
Br640      Br  0.15939124  0.60974423  0.06161663    -0.01500
O641        O  0.95678094  0.45404780  0.04096576    -0.75200
O642        O  0.53217376  0.04403569  0.02268210    -0.75200
O643        O  0.95905155  0.04359971  0.02843504    -0.75200
O644        O  0.53100852  0.45431427  0.03583242    -0.75300
O645        O  0.53804925  0.45249757  0.46311877    -0.75200
O646        O  0.96798782  0.04414146  0.45250874    -0.75200
O647        O  0.54177863  0.04232280  0.45078836    -0.75200
O648        O  0.96572372  0.45430651  0.46399011    -0.75200
Ni649      Ni  0.99450255  0.49905958  0.03458147     1.25400
Ni650      Ni  0.50377287  0.99833157  0.45490908     1.25400
C651        C  0.94764947  0.44165002  0.50282255     0.87000
C652        C  0.54874634  0.05907317  0.48529658     0.87000
C653        C  0.95133093  0.05605971  0.99056374     0.87000
C654        C  0.54703142  0.43656804  0.00086128     0.87200
O655        O  0.53497070  0.04499830  0.28923243    -0.75200
O656        O  0.95624506  0.46051876  0.29851517    -0.75200
O657        O  0.52988374  0.45515712  0.29722691    -0.75200
O658        O  0.96231801  0.05061302  0.29052980    -0.74500
O659        O  0.97037851  0.04740929  0.21740172    -0.75200
O660        O  0.54112751  0.45647433  0.22320954    -0.75200
O661        O  0.96888726  0.45751343  0.22517395    -0.75200
O662        O  0.54380538  0.04644441  0.21517644    -0.75200
Ni663      Ni  0.99541797  0.50271464  0.29660325     1.25400
Ni664      Ni  0.50640761  0.00204770  0.21766428     1.25400
C665        C  0.55274450  0.05899133  0.25054274     0.87000
C666        C  0.94910496  0.44554851  0.26314868     0.87000
C667        C  0.54793012  0.44159168  0.26095863     0.87000
C668        C  0.95415214  0.06387147  0.25300383     0.87200
O669        O  0.68507584  0.32132634  0.04743658    -0.81600
O670        O  0.82007607  0.19946066  0.01161578    -0.66300
O671        O  0.74917798  0.29243545  0.49748171    -1.12900
C672        C  0.67716131  0.17048013  0.47327862     1.05300
O673        O  0.81036964  0.17204139  0.44779000    -0.79500
O674        O  0.76006760  0.20542483  0.40356013    -0.67100
Ni675      Ni  0.73709169  0.33180720  0.04019090     1.34900
C676        C  0.74517461  0.24270207  0.39717104     0.84000
O677        O  0.82126033  0.28848396  0.01178758    -0.80100
O678        O  0.78775315  0.34781599  0.03436076    -0.90300
C679        C  0.82826705  0.17556931  0.47853044     0.83600
O680        O  0.73783928  0.29399202  0.09346491    -0.68500
O681        O  0.70715859  0.15161358  0.45875858    -0.87800
C682        C  0.75283759  0.25691618  0.10118102     0.84400
C683        C  0.81814180  0.32865129  0.02243863     1.06000
H684        H  0.74037445  0.18556393  0.02704461     0.37800
O685        O  0.74892613  0.20296454  0.99902652    -1.10500
O686        O  0.72514482  0.26195069  0.42818408    -0.67100
Ni687      Ni  0.71165636  0.25140552  0.49223341     1.26300
O688        O  0.77095884  0.23527629  0.07045284    -0.67400
O689        O  0.67480736  0.20907726  0.48771626    -0.79700
C690        C  0.66819772  0.31847133  0.01547818     0.83800
O691        O  0.67756720  0.29729284  0.48773234    -0.66800
Ni692      Ni  0.75818571  0.16468408  0.45492519     1.27400
Ni693      Ni  0.78543592  0.24488196  0.00623315     1.26100
H694        H  0.75739368  0.30929429  0.46917229     0.38300
O695        O  0.68684624  0.32903550  0.29590183    -0.81600
O696        O  0.82174830  0.20817444  0.26600097    -0.66300
O697        O  0.75175789  0.29582483  0.24760904    -1.12900
C698        C  0.68301673  0.16815021  0.22920988     1.05300
O699        O  0.81614754  0.17543498  0.20568156    -0.79500
O700        O  0.76479765  0.20215585  0.15682219    -0.67100
Ni701      Ni  0.73850462  0.33932927  0.29022591     1.34900
C702        C  0.74892897  0.23839025  0.14821408     0.84000
O703        O  0.82293880  0.29688900  0.26241904    -0.80100
O704        O  0.78898437  0.35500960  0.28709909    -0.90300
C705        C  0.83245133  0.18022321  0.23785227     0.83600
O706        O  0.73647500  0.30111184  0.34373489    -0.68500
O707        O  0.71354271  0.14962660  0.21622798    -0.87800
C708        C  0.75154910  0.26422435  0.35138745     0.84400
C709        C  0.81950963  0.33639166  0.27465430     1.06000
H710        H  0.74225168  0.19423357  0.28101198     0.37800
O711        O  0.75109773  0.21026473  0.25227517    -1.10500
O712        O  0.72973248  0.25979443  0.17828896    -0.67100
Ni713      Ni  0.71533738  0.25300803  0.24244937     1.26300
O714        O  0.77210936  0.24455422  0.32127083    -0.67400
O715        O  0.67970395  0.20845179  0.23940633    -0.79700
C716        C  0.67007027  0.32482576  0.26423868     0.83800
O717        O  0.68063397  0.29794737  0.23485153    -0.66800
Ni718      Ni  0.76416733  0.16552561  0.21138010     1.27400
Ni719      Ni  0.78742241  0.25288369  0.25768608     1.26100
H720        H  0.76038357  0.31205804  0.21899542     0.38300
C721        C  0.61158998  0.41861330  0.23045016    -0.02600
C722        C  0.57857485  0.41034656  0.26180658     0.07100
C723        C  0.57580438  0.37299628  0.29371720    -0.02700
C724        C  0.60556442  0.34422041  0.29386634    -0.02700
C725        C  0.63784767  0.35218667  0.26193730     0.07200
C726        C  0.64071807  0.38902433  0.23001046    -0.02900
Br727      Br  0.68553018  0.40011558  0.18684603    -0.01400
Br728      Br  0.61908011  0.47270236  0.19050588    -0.01500
Br729      Br  0.60222177  0.29318646  0.33722175    -0.01500
Br730      Br  0.53143792  0.36009864  0.33685519    -0.01500
C731        C  0.89750936  0.41743147  0.22977306    -0.02600
C732        C  0.91678096  0.41558828  0.26561575     0.07100
C733        C  0.90384383  0.38615367  0.30418814    -0.02700
C734        C  0.87170736  0.36051823  0.30737348    -0.02700
C735        C  0.85286542  0.36309612  0.27194106     0.07200
C736        C  0.86593887  0.39091942  0.23307168    -0.02900
Br737      Br  0.83989215  0.39271923  0.18426954    -0.01400
Br738      Br  0.91196147  0.45740474  0.17624466    -0.01500
Br739      Br  0.85295706  0.32180539  0.36037894    -0.01500
Br740      Br  0.93035769  0.37827275  0.35232058    -0.01500
C741        C  0.92450914  0.12523150  0.21103827    -0.02600
C742        C  0.92459746  0.09716520  0.25073355     0.07100
C743        C  0.89477189  0.09932076  0.28717340    -0.02700
C744        C  0.86479670  0.12656516  0.28267052    -0.02700
C745        C  0.86463456  0.15313135  0.24265512     0.07200
C746        C  0.89494749  0.15349677  0.20755217    -0.02900
Br747      Br  0.89656988  0.19461916  0.15526680    -0.01400
Br748      Br  0.96461301  0.12682418  0.16061385    -0.01500
Br749      Br  0.82254854  0.12519071  0.33067551    -0.01500
Br750      Br  0.89260502  0.06390951  0.34333526    -0.01500
C751        C  0.62161121  0.15400555  0.21181997    -0.02600
C752        C  0.64961178  0.14059208  0.23450176     0.07100
C753        C  0.64522852  0.10131072  0.26375104    -0.02700
C754        C  0.61349312  0.07468652  0.26904041    -0.02700
C755        C  0.58523339  0.08821827  0.24654529     0.07200
C756        C  0.58923023  0.12831855  0.21845438    -0.02900
Br757      Br  0.54984806  0.14947354  0.19059646    -0.01400
Br758      Br  0.62834913  0.20648835  0.17008734    -0.01500
Br759      Br  0.61007564  0.01844690  0.30528373    -0.01500
Br760      Br  0.68202645  0.08479534  0.29824904    -0.01500
C761        C  0.60683284  0.34843736  0.04761517    -0.02600
C762        C  0.63658711  0.34722908  0.01181567     0.07100
C763        C  0.63644656  0.37382666  0.97178320    -0.02700
C764        C  0.60683085  0.40174836  0.96748858    -0.02700
C765        C  0.57703067  0.40410333  0.00385638     0.07200
C766        C  0.57881516  0.38584915  0.54649457    -0.02900
Br767      Br  0.54040334  0.38812130  0.59859704    -0.01400
Br768      Br  0.61077144  0.32575444  0.60713781    -0.01500
Br769      Br  0.60937275  0.43792864  0.91168437    -0.01500
Br770      Br  0.67835407  0.37439405  0.92333713    -0.01500
C771        C  0.90562220  0.37571631  0.04686254    -0.02600
C772        C  0.91434501  0.41016632  0.01186010     0.07100
C773        C  0.89065467  0.41770841  0.98118363    -0.02700
C774        C  0.86011202  0.38966629  0.98393478    -0.02700
C775        C  0.85156764  0.35564169  0.01875472     0.07200
C776        C  0.87415103  0.34867783  0.05027163    -0.02900
Br777      Br  0.86130818  0.30238957  0.09839157    -0.01400
Br778      Br  0.93650278  0.36442433  0.08997744    -0.01500
Br779      Br  0.83022598  0.39707641  0.93907551    -0.01500
Br780      Br  0.89450713  0.47695735  0.43999439    -0.01500
C781        C  0.89282871  0.15454528  0.45023597    -0.02600
C782        C  0.85961687  0.14660254  0.48051199     0.07100
C783        C  0.85569212  0.11006698  0.51289420    -0.02700
C784        C  0.88684251  0.07868527  0.01754572    -0.02700
C785        C  0.91877482  0.08942321  0.48536857     0.07200
C786        C  0.92262895  0.12648317  0.45312214    -0.02900
Br787      Br  0.96913631  0.14075610  0.41461871    -0.01400
Br788      Br  0.89750699  0.20440228  0.40547104    -0.01500
Br789      Br  0.87884076  0.02599928  0.05919403    -0.01500
Br790      Br  0.81066856  0.09522314  0.05365468    -0.01500
C791        C  0.62631055  0.14396435  0.43933079    -0.02600
C792        C  0.64335132  0.14460971  0.47620247     0.07100
C793        C  0.62958340  0.11817732  0.51574485    -0.02700
C794        C  0.59933195  0.08966951  0.51833039    -0.02700
C795        C  0.58111827  0.08925146  0.48170850     0.07200
C796        C  0.59525727  0.11642596  0.44179689    -0.02900
Br797      Br  0.57441369  0.11327664  0.88874817    -0.01400
Br798      Br  0.64582267  0.18132219  0.38560826    -0.01500
Br799      Br  0.58660826  0.04816021  0.57103493    -0.01500
Br800      Br  0.65315337  0.12053430  0.56639422    -0.01500
O801        O  0.95578914  0.45634106  0.53776419    -0.75200
O802        O  0.52885886  0.04851115  0.52362556    -0.75200
O803        O  0.95630178  0.04606358  0.52628500    -0.75200
O804        O  0.52933495  0.45881349  0.53570629    -0.75300
O805        O  0.53813687  0.44764548  0.96326083    -0.75200
O806        O  0.96861356  0.04057997  0.95480294    -0.75200
O807        O  0.54288938  0.03742091  0.94984956    -0.75200
O808        O  0.96525437  0.45063499  0.96755447    -0.75200
Ni809      Ni  0.99221494  0.50247003  0.53347534     1.25400
Ni810      Ni  0.50399692  0.99404482  0.95619968     1.25400
C811        C  0.94741199  0.43907560  0.00682824     0.87000
C812        C  0.55134270  0.05390180  0.98373842     0.87000
C813        C  0.94949152  0.05880599  0.48801052     0.87000
C814        C  0.54626133  0.44135619  0.50106436     0.87200
O815        O  0.53652255  0.04336088  0.78683923    -0.75200
O816        O  0.95781751  0.45824506  0.79798944    -0.75200
O817        O  0.53164191  0.45347775  0.79612714    -0.75200
O818        O  0.96335158  0.04829172  0.78825008    -0.74500
O819        O  0.97231399  0.04478319  0.71496958    -0.75200
O820        O  0.54135290  0.45240390  0.72250715    -0.75200
O821        O  0.96931998  0.45521241  0.72452899    -0.75200
O822        O  0.54588279  0.04257473  0.71294193    -0.75200
Ni823      Ni  0.99692810  0.50083626  0.79504243     1.25400
Ni824      Ni  0.50762309  0.99883642  0.71619186     1.25400
C825        C  0.55471206  0.05615122  0.74800078     0.87000
C826        C  0.94999192  0.44349320  0.76286991     0.87000
C827        C  0.54884031  0.43844768  0.76011183     0.87000
C828        C  0.95539192  0.06090842  0.75037469     0.87200
O829        O  0.68587765  0.32743437  0.54831990    -0.81600
O830        O  0.81912370  0.20237834  0.50832034    -0.66300
O831        O  0.74964256  0.28823423  0.99802446    -1.12900
C832        C  0.68082881  0.16431074  0.97061670     1.05300
O833        O  0.81390985  0.17121493  0.94906148    -0.79500
O834        O  0.76340130  0.20166887  0.90300227    -0.67100
Ni835      Ni  0.73814209  0.33559269  0.54045991     1.34900
C836        C  0.74788515  0.23851650  0.89649678     0.84000
O837        O  0.82157090  0.29139214  0.50725515    -0.80100
O838        O  0.78909489  0.34991636  0.53394481    -0.90300
C839        C  0.83065222  0.17382359  0.98107027     0.83600
O840        O  0.73851661  0.29636946  0.59307252    -0.68500
O841        O  0.71142624  0.14609152  0.95736188    -0.87800
C842        C  0.75403514  0.25940538  0.59982711     0.84400
C843        C  0.81909151  0.33106859  0.51929226     1.06000
H844        H  0.73901931  0.18995702  0.52752425     0.37800
O845        O  0.74715268  0.20701468  0.49907655    -1.10500
O846        O  0.72757745  0.25749462  0.92743562    -0.67100
Ni847      Ni  0.71302653  0.24643669  0.99118937     1.26300
O848        O  0.77232275  0.23884008  0.56840861    -0.67400
O849        O  0.67736884  0.20307260  0.98479777    -0.79700
C850        C  0.66840629  0.32471685  0.51689871     0.83800
O851        O  0.67833243  0.29163210  0.98595717    -0.66800
Ni852      Ni  0.76202462  0.16127852  0.95466649     1.27400
Ni853      Ni  0.78477308  0.24831814  0.50405876     1.26100
H854        H  0.75844843  0.30499548  0.96971474     0.38300
O855        O  0.68809845  0.32537607  0.79670792    -0.81600
O856        O  0.82355179  0.20515400  0.76395363    -0.66300
O857        O  0.75324317  0.29325767  0.74749147    -1.12900
C858        C  0.68505863  0.16615925  0.72599695     1.05300
O859        O  0.81814703  0.17507680  0.70214063    -0.79500
O860        O  0.76665564  0.20311105  0.65387724    -0.67100
Ni861      Ni  0.73978599  0.33595960  0.79081492     1.34900
C862        C  0.75044892  0.23942168  0.64642751     0.84000
O863        O  0.82448277  0.29412073  0.76262064    -0.80100
O864        O  0.79017091  0.35194358  0.78746222    -0.90300
C865        C  0.83410338  0.17796719  0.73494253     0.83600
O866        O  0.73850374  0.29702042  0.84367595    -0.68500
O867        O  0.71571186  0.14831196  0.71198723    -0.87800
C868        C  0.75371319  0.26007245  0.85075978     0.84400
C869        C  0.82081136  0.33358272  0.77504211     1.06000
H870        H  0.74432330  0.19093079  0.77829093     0.37800
O871        O  0.75301557  0.20782949  0.74997628    -1.10500
O872        O  0.73101880  0.25952604  0.67731579    -0.67100
Ni873      Ni  0.71697693  0.25057954  0.74142949     1.26300
O874        O  0.77385921  0.24051483  0.82019537    -0.67400
O875        O  0.68154255  0.20605332  0.73738874    -0.79700
C876        C  0.67125350  0.32159861  0.76500396     0.83800
O877        O  0.68196694  0.29528651  0.73516124    -0.66800
Ni878      Ni  0.76628863  0.16468911  0.70741467     1.27400
Ni879      Ni  0.78914508  0.25021378  0.75666003     1.26100
H880        H  0.76183343  0.31002037  0.71915378     0.38300
C881        C  0.61023200  0.40991119  0.72569348    -0.02600
C882        C  0.57919683  0.40643166  0.76095914     0.07100
C883        C  0.57842390  0.37338433  0.79698774    -0.02700
C884        C  0.60829854  0.34490526  0.79788978    -0.02700
C885        C  0.63883111  0.34879466  0.76282732     0.07200
C886        C  0.63959448  0.38087435  0.72659125    -0.02900
Br887      Br  0.68236363  0.38717567  0.67935234    -0.01400
Br888      Br  0.61521876  0.45660340  0.67718717    -0.01500
Br889      Br  0.60725393  0.29948193  0.84662487    -0.01500
Br890      Br  0.53652489  0.36538903  0.84492987    -0.01500
C891        C  0.89563587  0.41957259  0.73271845    -0.02600
C892        C  0.91736393  0.41409732  0.76596084     0.07100
C893        C  0.90693903  0.38124813  0.80225652    -0.02700
C894        C  0.87553792  0.35433025  0.80497958    -0.02700
C895        C  0.85392250  0.36080468  0.77240610     0.07200
C896        C  0.86384347  0.39338946  0.73649592    -0.02900
Br897      Br  0.83351818  0.40180178  0.69211017    -0.01400
Br898      Br  0.90752310  0.46380884  0.68219570    -0.01500
Br899      Br  0.86159332  0.30863259  0.85346873    -0.01500
Br900      Br  0.93581853  0.37113572  0.84778173    -0.01500
C901        C  0.92635346  0.12332125  0.70912143    -0.02600
C902        C  0.92514989  0.09289720  0.74744958     0.07100
C903        C  0.89340618  0.09109448  0.78161408    -0.02700
C904        C  0.86392386  0.11935318  0.77749910    -0.02700
C905        C  0.86562730  0.14956353  0.73944958     0.07200
C906        C  0.89697995  0.15190076  0.70569977    -0.02900
Br907      Br  0.90013305  0.19586495  0.65536864    -0.01400
Br908      Br  0.96751853  0.12674640  0.66004932    -0.01500
Br909      Br  0.81994830  0.11473712  0.82296657    -0.01500
Br910      Br  0.88773722  0.04729466  0.83254909    -0.01500
C911        C  0.62351975  0.15158443  0.70894703    -0.02600
C912        C  0.65176825  0.13822687  0.73123251     0.07100
C913        C  0.64759801  0.09882329  0.76035268    -0.02700
C914        C  0.61589511  0.07198110  0.76576669    -0.02700
C915        C  0.58741827  0.08538342  0.74356974     0.07200
C916        C  0.59121448  0.12565508  0.71573141    -0.02900
Br917      Br  0.55155422  0.14688789  0.68865216    -0.01400
Br918      Br  0.62967326  0.20459630  0.66781946    -0.01500
Br919      Br  0.61268431  0.01568440  0.80183529    -0.01500
Br920      Br  0.68460577  0.08259152  0.79461657    -0.01500
C921        C  0.60887857  0.35849640  0.55063045    -0.02600
C922        C  0.63695342  0.35391033  0.51351150     0.07100
C923        C  0.63493166  0.37683007  0.47206879    -0.02700
C924        C  0.60479207  0.40362003  0.46733756    -0.02700
C925        C  0.57654491  0.40931228  0.50482026     0.07200
C926        C  0.57727448  0.37675172  0.04390222    -0.02900
Br927      Br  0.53683510  0.37568762  0.09399396    -0.01400
Br928      Br  0.60575722  0.30957490  0.10126934    -0.01500
Br929      Br  0.60437056  0.43254656  0.40855323    -0.01500
Br930      Br  0.67514379  0.37430857  0.42178055    -0.01500
C931        C  0.90985583  0.37377834  0.53749236    -0.02600
C932        C  0.91550402  0.41197167  0.50666708     0.07100
C933        C  0.88950019  0.42287579  0.47977174    -0.02700
C934        C  0.85842388  0.39559268  0.48338843    -0.02700
C935        C  0.85269971  0.35783344  0.51444955     0.07200
C936        C  0.87842660  0.34673325  0.54129223    -0.02900
Br937      Br  0.86967934  0.29539079  0.58434645    -0.01400
Br938      Br  0.94526253  0.35765962  0.57388234    -0.01500
Br939      Br  0.82379983  0.40966482  0.44512586    -0.01500
Br940      Br  0.89728078  0.46891608  0.93752415    -0.01500
C941        C  0.89596061  0.15400829  0.95494950    -0.02600
C942        C  0.86209969  0.14505825  0.98369379     0.07100
C943        C  0.85763290  0.10763548  0.01510017    -0.02700
C944        C  0.88492463  0.08113170  0.51505403    -0.02700
C945        C  0.92097541  0.08737337  0.98865191     0.07200
C946        C  0.92551124  0.12548215  0.95773293    -0.02900
Br947      Br  0.97267160  0.14026832  0.92104789    -0.01400
Br948      Br  0.90195683  0.20588711  0.91256413    -0.01500
Br949      Br  0.87710329  0.02881509  0.55726896    -0.01500
Br950      Br  0.80942194  0.09890492  0.55335547    -0.01500
C951        C  0.62953483  0.13802400  0.93671125    -0.02600
C952        C  0.64755268  0.13734168  0.97292449     0.07100
C953        C  0.63477586  0.10927453  0.01167981    -0.02700
C954        C  0.60439275  0.08099208  0.01428732    -0.02700
C955        C  0.58469119  0.08274413  0.97895419     0.07200
C956        C  0.59807716  0.11095101  0.93953175    -0.02900
Br957      Br  0.57338492  0.11667591  0.38962165    -0.01400
Br958      Br  0.64823325  0.17642318  0.88345927    -0.01500
Br959      Br  0.59334895  0.03672525  0.06491935    -0.01500
Br960      Br  0.65944141  0.10964270  0.06156598    -0.01500
O961        O  0.95678461  0.95405132  0.04097211    -0.75200
O962        O  0.53216549  0.54404050  0.02268814    -0.75200
O963        O  0.95904681  0.54359583  0.02842956    -0.75200
O964        O  0.53100880  0.95431093  0.03583365    -0.75300
O965        O  0.53805358  0.95249443  0.46309333    -0.75200
O966        O  0.96797991  0.54413087  0.45253111    -0.75200
O967        O  0.54177121  0.54232519  0.45081629    -0.75200
O968        O  0.96572786  0.95431617  0.46396099    -0.75200
Ni969      Ni  0.99450719  0.99906315  0.03458182     1.25400
Ni970      Ni  0.50376782  0.49833181  0.45493407     1.25400
C971        C  0.94765724  0.94165459  0.50279399     0.87000
C972        C  0.54873669  0.55907682  0.48532500     0.87000
C973        C  0.95132895  0.55605555  0.99055652     0.87000
C974        C  0.54702827  0.93656363  0.00086179     0.87200
O975        O  0.53496897  0.54499847  0.28923573    -0.75200
O976        O  0.95624422  0.96052395  0.29852332    -0.75200
O977        O  0.52988461  0.95515568  0.29723107    -0.75200
O978        O  0.96231530  0.55060800  0.29052831    -0.74500
O979        O  0.97037846  0.54741065  0.21739886    -0.75200
O980        O  0.54112974  0.95647048  0.22321305    -0.75200
O981        O  0.96888594  0.95751142  0.22518346    -0.75200
O982        O  0.54380540  0.54644995  0.21517894    -0.75200
Ni983      Ni  0.99541895  0.00271822  0.29660701     1.25400
Ni984      Ni  0.50640737  0.50205440  0.21766192     1.25400
C985        C  0.55274325  0.55899391  0.25054709     0.87000
C986        C  0.94910361  0.94554968  0.26315896     0.87000
C987        C  0.54793153  0.94158992  0.26096314     0.87000
C988        C  0.95415006  0.56386842  0.25300242     0.87200
O989        O  0.68507645  0.82133727  0.04743747    -0.81600
O990        O  0.82007947  0.69946702  0.01161669    -0.66300
O991        O  0.74918008  0.79243554  0.49748304    -1.12900
C992        C  0.67715744  0.67047809  0.47329582     1.05300
O993        O  0.81036600  0.67203436  0.44779708    -0.79500
O994        O  0.76006323  0.70541707  0.40356891    -0.67100
Ni995      Ni  0.73709265  0.83181266  0.04020117     1.34900
C996        C  0.74517111  0.74269476  0.39717923     0.84000
O997        O  0.82126316  0.78849068  0.01179407    -0.80100
O998        O  0.78775420  0.84781711  0.03438056    -0.90300
C999        C  0.82826529  0.67556555  0.47853513     0.83600
O1000       O  0.73783358  0.79399139  0.09347292    -0.68500
O1001       O  0.70715361  0.65161012  0.45877381    -0.87800
C1002       C  0.75283641  0.75691845  0.10118813     0.84400
C1003       C  0.81814345  0.82865515  0.02245334     1.06000
H1004       H  0.74037446  0.68557538  0.02705036     0.37800
O1005       O  0.74892764  0.70297425  0.99903156    -1.10500
O1006       O  0.72514248  0.76194466  0.42819196    -0.67100
Ni1007     Ni  0.71165692  0.75140466  0.49224135     1.26300
O1008       O  0.77096266  0.73528306  0.07045930    -0.67400
O1009       O  0.67480590  0.70907615  0.48773132    -0.79700
C1010       C  0.66820106  0.81848161  0.01547651     0.83800
O1011       O  0.67756925  0.79729187  0.48773655    -0.66800
Ni1012     Ni  0.75818168  0.66467925  0.45493624     1.27400
Ni1013     Ni  0.78543867  0.74488981  0.00623870     1.26100
H1014       H  0.75739427  0.80929306  0.46917261     0.38300
O1015       O  0.68684596  0.82903941  0.29590844    -0.81600
O1016       O  0.82174702  0.70817045  0.26600861    -0.66300
O1017       O  0.75175824  0.79582449  0.24761836    -1.12900
C1018       C  0.68301479  0.66815209  0.22921832     1.05300
O1019       O  0.81614545  0.67543489  0.20568719    -0.79500
O1020       O  0.76479638  0.70215690  0.15682847    -0.67100
Ni1021     Ni  0.73850484  0.83932686  0.29023791     1.34900
C1022       C  0.74892774  0.73839139  0.14822113     0.84000
O1023       O  0.82293920  0.79688552  0.26242916    -0.80100
O1024       O  0.78898468  0.85500269  0.28711790    -0.90300
C1025       C  0.83244928  0.68022050  0.23785825     0.83600
O1026       O  0.73647033  0.80110423  0.34374415    -0.68500
O1027       O  0.71354045  0.64962879  0.21623364    -0.87800
C1028       C  0.75154606  0.76421773  0.35139608     0.84400
C1029       C  0.81950998  0.83638602  0.27467018     1.06000
H1030       H  0.74225043  0.69423239  0.28101915     0.37800
O1031       O  0.75109673  0.71026420  0.25228276    -1.10500
O1032       O  0.72973173  0.75979512  0.17829691    -0.67100
Ni1033     Ni  0.71533721  0.75300860  0.24245780     1.26300
O1034       O  0.77210903  0.74455037  0.32127964    -0.67400
O1035       O  0.67970302  0.70845321  0.23941625    -0.79700
C1036       C  0.67007104  0.82482819  0.26424462     0.83800
O1037       O  0.68063466  0.79794847  0.23485901    -0.66800
Ni1038     Ni  0.76416534  0.66552619  0.21138607     1.27400
Ni1039     Ni  0.78742208  0.75288157  0.25769485     1.26100
H1040       H  0.76038407  0.81205851  0.21900515     0.38300
C1041       C  0.61160166  0.91863748  0.23047993    -0.02600
C1042       C  0.57857687  0.91034788  0.26181220     0.07100
C1043       C  0.57579487  0.87297455  0.29369614    -0.02700
C1044       C  0.60555368  0.84419610  0.29384148    -0.02700
C1045       C  0.63784969  0.85218971  0.26194031     0.07200
C1046       C  0.64073176  0.88905187  0.23004047    -0.02900
Br1047     Br  0.68555902  0.90017497  0.18691065    -0.01400
Br1048     Br  0.61909649  0.97274842  0.19056804    -0.01500
Br1049     Br  0.60219203  0.79312062  0.33714995    -0.01500
Br1050     Br  0.53141380  0.86005125  0.33680021    -0.01500
C1051       C  0.89751647  0.91741291  0.22977891    -0.02600
C1052       C  0.91677959  0.91558768  0.26562924     0.07100
C1053       C  0.90383371  0.88616909  0.30421159    -0.02700
C1054       C  0.87169618  0.86053484  0.30739926    -0.02700
C1055       C  0.85286552  0.86309120  0.27195678     0.07200
C1056       C  0.86594858  0.89089609  0.23307763    -0.02900
Br1057     Br  0.83991666  0.89266651  0.18426301    -0.01400
Br1058     Br  0.91197482  0.95736871  0.17623885    -0.01500
Br1059     Br  0.85292918  0.82185299  0.36042142    -0.01500
Br1060     Br  0.93033667  0.87830656  0.35235592    -0.01500
C1061       C  0.92450937  0.62523564  0.21104425    -0.02600
C1062       C  0.92459372  0.59715932  0.25073397     0.07100
C1063       C  0.89476289  0.59930179  0.28716938    -0.02700
C1064       C  0.86478862  0.62654844  0.28266878    -0.02700
C1065       C  0.86463145  0.65312672  0.24265941     0.07200
C1066       C  0.89494764  0.65350108  0.20756006    -0.02900
Br1067     Br  0.89657350  0.69463445  0.15528228    -0.01400
Br1068     Br  0.96461787  0.62683994  0.16062464    -0.01500
Br1069     Br  0.82253503  0.62516131  0.33066706    -0.01500
Br1070     Br  0.89258677  0.56386605  0.34331919    -0.01500
C1071       C  0.62159856  0.65402284  0.21185090    -0.02600
C1072       C  0.64960915  0.64059450  0.23451072     0.07100
C1073       C  0.64523471  0.60129853  0.26373995    -0.02700
C1074       C  0.61350026  0.57467332  0.26902593    -0.02700
C1075       C  0.58523147  0.58822008  0.24655287     0.07200
C1076       C  0.58921747  0.62833609  0.21848707    -0.02900
Br1077     Br  0.54981967  0.64951182  0.19066925    -0.01400
Br1078     Br  0.62832171  0.70652565  0.17014438    -0.01500
Br1079     Br  0.61009441  0.51841341  0.30523397    -0.01500
Br1080     Br  0.68204129  0.58476498  0.29821927    -0.01500
C1081       C  0.60683127  0.84843404  0.04761037    -0.02600
C1082       C  0.63658813  0.84723421  0.01181314     0.07100
C1083       C  0.63644707  0.87383373  0.97178187    -0.02700
C1084       C  0.60682937  0.90175187  0.96748782    -0.02700
C1085       C  0.57702781  0.90410028  0.00385460     0.07200
C1086       C  0.57881366  0.88584521  0.54647544    -0.02900
Br1087     Br  0.54039318  0.88810901  0.59857001    -0.01400
Br1088     Br  0.61077025  0.82576427  0.60713015    -0.01500
Br1089     Br  0.60937049  0.93793824  0.91168724    -0.01500
Br1090     Br  0.67835538  0.87440773  0.92333653    -0.01500
C1091       C  0.90563617  0.87570504  0.04685853    -0.02600
C1092       C  0.91434521  0.91017170  0.01187146     0.07100
C1093       C  0.89064412  0.91772811  0.98121026    -0.02700
C1094       C  0.86010224  0.88968526  0.98396134    -0.02700
C1095       C  0.85156836  0.85564709  0.01876957     0.07200
C1096       C  0.87416406  0.84866756  0.05027105    -0.02900
Br1097     Br  0.86133816  0.80235859  0.09837333    -0.01400
Br1098     Br  0.93654066  0.86438659  0.08994214    -0.01500
Br1099     Br  0.83020662  0.89710868  0.93911318    -0.01500
Br1100     Br  0.89448063  0.97700068  0.44003111    -0.01500
C1101       C  0.89282668  0.65453889  0.45024724    -0.02600
C1102       C  0.85961291  0.64659685  0.48051936     0.07100
C1103       C  0.85568426  0.61006098  0.51290140    -0.02700
C1104       C  0.88684104  0.57868648  0.01753731    -0.02700
C1105       C  0.91876691  0.58941451  0.48538305     0.07200
C1106       C  0.92262501  0.62647488  0.45313684    -0.02900
Br1107     Br  0.96913471  0.64074483  0.41463771    -0.01400
Br1108     Br  0.89751046  0.70439850  0.40548453    -0.01500
Br1109     Br  0.87883555  0.52599777  0.05918168    -0.01500
Br1110     Br  0.81067219  0.59523918  0.05365976    -0.01500
C1111       C  0.62630506  0.64396020  0.43935222    -0.02600
C1112       C  0.64334574  0.64460947  0.47622351     0.07100
C1113       C  0.62957414  0.61818586  0.51577045    -0.02700
C1114       C  0.59931764  0.58968427  0.51836214    -0.02700
C1115       C  0.58110725  0.58925770  0.48173759     0.07200
C1116       C  0.59525007  0.61642410  0.44182167    -0.02900
Br1117     Br  0.57442531  0.61326746  0.88874983    -0.01400
Br1118     Br  0.64581997  0.68130948  0.38562481    -0.01500
Br1119     Br  0.58658027  0.54819843  0.57108300    -0.01500
Br1120     Br  0.65314762  0.62054443  0.56641683    -0.01500
O1121       O  0.95579827  0.95634284  0.53773631    -0.75200
O1122       O  0.52884838  0.54851366  0.52365301    -0.75200
O1123       O  0.95629130  0.54605929  0.52630683    -0.75200
O1124       O  0.52934073  0.95881133  0.53568074    -0.75300
O1125       O  0.53813095  0.94763992  0.96326264    -0.75200
O1126       O  0.96861482  0.54057564  0.95479751    -0.75200
O1127       O  0.54289237  0.53742785  0.94985587    -0.75200
O1128       O  0.96524978  0.95064023  0.96756055    -0.75200
Ni1129     Ni  0.99222447  0.00247215  0.53344848     1.25400
Ni1130     Ni  0.50400206  0.49404913  0.95619552     1.25400
C1131       C  0.94741192  0.93908009  0.00683619     0.87000
C1132       C  0.55133884  0.55391027  0.98374805     0.87000
C1133       C  0.94948242  0.55879778  0.48803059     0.87000
C1134       C  0.54626513  0.94135190  0.50103937     0.87200
O1135       O  0.53651898  0.54335920  0.78685746    -0.75200
O1136       O  0.95782047  0.95825057  0.79797059    -0.75200
O1137       O  0.53164529  0.95348047  0.79610740    -0.75200
O1138       O  0.96334833  0.54828730  0.78826973    -0.74500
O1139       O  0.97230934  0.54477592  0.71498998    -0.75200
O1140       O  0.54135027  0.95240124  0.72248920    -0.75200
O1141       O  0.96931816  0.95521978  0.72451016    -0.75200
O1142       O  0.54587721  0.54257738  0.71295978    -0.75200
Ni1143     Ni  0.99693140  0.00084078  0.79502180     1.25400
Ni1144     Ni  0.50762161  0.49883472  0.71620954     1.25400
C1145       C  0.55470663  0.55615289  0.74801873     0.87000
C1146       C  0.94999229  0.94349943  0.76285230     0.87000
C1147       C  0.54884033  0.93844630  0.76009252     0.87000
C1148       C  0.95538809  0.56090309  0.75039448     0.87200
O1149       O  0.68588204  0.82744609  0.54831711    -0.81600
O1150       O  0.81912511  0.70237865  0.50832157    -0.66300
O1151       O  0.74964590  0.78824354  0.99803133    -1.12900
C1152       C  0.68082843  0.66431905  0.97062729     1.05300
O1153       O  0.81390940  0.67122828  0.94906061    -0.79500
O1154       O  0.76339333  0.70166701  0.90300565    -0.67100
Ni1155     Ni  0.73814773  0.83559459  0.54046041     1.34900
C1156       C  0.74788553  0.73852041  0.89649904     0.84000
O1157       O  0.82157557  0.79139235  0.50724616    -0.80100
O1158       O  0.78910208  0.84991262  0.53394779    -0.90300
C1159       C  0.83065423  0.67383264  0.98106790     0.83600
O1160       O  0.73851625  0.79636838  0.59307309    -0.68500
O1161       O  0.71142449  0.64609281  0.95738097    -0.87800
C1162       C  0.75403710  0.75940595  0.59982839     0.84400
C1163       C  0.81909819  0.83106755  0.51928657     1.06000
H1164       H  0.73902074  0.68995831  0.52753423     0.37800
O1165       O  0.74715275  0.70701367  0.49908503    -1.10500
O1166       O  0.72758602  0.75750692  0.92743820    -0.67100
Ni1167     Ni  0.71303040  0.74644802  0.99119118     1.26300
O1168       O  0.77232895  0.73884387  0.56841025    -0.67400
O1169       O  0.67737178  0.70308642  0.98479596    -0.79700
C1170       C  0.66841030  0.82472208  0.51689698     0.83800
O1171       O  0.67833906  0.79164458  0.98595474    -0.66800
Ni1172     Ni  0.76202388  0.66128461  0.95467476     1.27400
Ni1173     Ni  0.78477513  0.74831801  0.50405943     1.26100
H1174       H  0.75845258  0.80500680  0.96972320     0.38300
O1175       O  0.68810309  0.82538273  0.79670597    -0.81600
O1176       O  0.82354697  0.70514466  0.76395732    -0.66300
O1177       O  0.75324528  0.79325515  0.74749048    -1.12900
C1178       C  0.68505173  0.66616360  0.72600221     1.05300
O1179       O  0.81814099  0.67506337  0.70214654    -0.79500
O1180       O  0.76665351  0.70310862  0.65387973    -0.67100
Ni1181     Ni  0.73979157  0.83596042  0.79081128     1.34900
C1182       C  0.75044836  0.73942041  0.64642908     0.84000
O1183       O  0.82448529  0.79411185  0.76261929    -0.80100
O1184       O  0.79017746  0.85193987  0.78745547    -0.90300
C1185       C  0.83409721  0.67795515  0.73494853     0.83600
O1186       O  0.73850832  0.79702385  0.84367476    -0.68500
O1187       O  0.71570351  0.64831426  0.71198988    -0.87800
C1188       C  0.75371416  0.76007366  0.85076051     0.84400
C1189       C  0.82081658  0.83357588  0.77503612     1.06000
H1190       H  0.74431860  0.69092906  0.77829392     0.37800
O1191       O  0.75301179  0.70782668  0.74997893    -1.10500
O1192       O  0.73101745  0.75952465  0.67731688    -0.67100
Ni1193     Ni  0.71697609  0.75058038  0.74143099     1.26300
O1194       O  0.77385728  0.74051187  0.82019687    -0.67400
O1195       O  0.68153821  0.70605787  0.73739336    -0.79700
C1196       C  0.67125734  0.82160426  0.76500284     0.83800
O1197       O  0.68196933  0.79529011  0.73516173    -0.66800
Ni1198     Ni  0.76628155  0.66468481  0.70741804     1.27400
Ni1199     Ni  0.78914401  0.75020776  0.75666118     1.26100
H1200       H  0.76183662  0.81001596  0.71915196     0.38300
C1201       C  0.61022156  0.90988281  0.72566037    -0.02600
C1202       C  0.57919534  0.90642661  0.76094010     0.07100
C1203       C  0.57843244  0.87340248  0.79698727    -0.02700
C1204       C  0.60830806  0.84492629  0.79789499    -0.02700
C1205       C  0.63883486  0.84879998  0.76282446     0.07200
C1206       C  0.63958968  0.88085734  0.72657179    -0.02900
Br1207     Br  0.68235751  0.88714903  0.67932945    -0.01400
Br1208     Br  0.61518824  0.95652145  0.67710548    -0.01500
Br1209     Br  0.60727190  0.79952720  0.84664997    -0.01500
Br1210     Br  0.53654481  0.86543152  0.84494840    -0.01500
C1211       C  0.89563692  0.91956955  0.73270407    -0.02600
C1212       C  0.91736489  0.91410114  0.76594703     0.07100
C1213       C  0.90694051  0.88125595  0.80224699    -0.02700
C1214       C  0.87554294  0.85433157  0.80497018    -0.02700
C1215       C  0.85392873  0.86079763  0.77239474     0.07200
C1216       C  0.86384733  0.89338079  0.73648251    -0.02900
Br1217     Br  0.83352137  0.90178494  0.69209669    -0.01400
Br1218     Br  0.90751792  0.96380752  0.68218201    -0.01500
Br1219     Br  0.86160053  0.80863780  0.85346354    -0.01500
Br1220     Br  0.93581222  0.87116190  0.84778291    -0.01500
C1221       C  0.92634772  0.62330861  0.70913377    -0.02600
C1222       C  0.92514669  0.59289323  0.74746800     0.07100
C1223       C  0.89340556  0.59109966  0.78163632    -0.02700
C1224       C  0.86392084  0.61935235  0.77751484    -0.02700
C1225       C  0.86562101  0.64955190  0.73945798     0.07200
C1226       C  0.89697256  0.65188388  0.70570679    -0.02900
Br1227     Br  0.90012208  0.69583571  0.65536602    -0.01400
Br1228     Br  0.96751340  0.62673128  0.66006220    -0.01500
Br1229     Br  0.81994605  0.61474160  0.82298394    -0.01500
Br1230     Br  0.88774451  0.54732489  0.83259096    -0.01500
C1231       C  0.62351164  0.65158704  0.70895733    -0.02600
C1232       C  0.65176039  0.63823265  0.73124326     0.07100
C1233       C  0.64759024  0.59883276  0.76036845    -0.02700
C1234       C  0.61588981  0.57198671  0.76578121    -0.02700
C1235       C  0.58741138  0.58538742  0.74358663     0.07200
C1236       C  0.59120556  0.62565873  0.71574768    -0.02900
Br1237     Br  0.55154180  0.64689312  0.68867643    -0.01400
Br1238     Br  0.62966609  0.70459250  0.66782120    -0.01500
Br1239     Br  0.61268651  0.51568520  0.80184070    -0.01500
Br1240     Br  0.68459357  0.58261298  0.79464248    -0.01500
C1241       C  0.60887912  0.85849887  0.55061870    -0.02600
C1242       C  0.63695770  0.85391379  0.51350390     0.07100
C1243       C  0.63493714  0.87682680  0.47205763    -0.02700
C1244       C  0.60479542  0.90361016  0.46731914    -0.02700
C1245       C  0.57654629  0.90930523  0.50479858     0.07200
C1246       C  0.57727133  0.87674548  0.04389829    -0.02900
Br1247     Br  0.53683026  0.87567469  0.09398829    -0.01400
Br1248     Br  0.60575385  0.80956254  0.10125882    -0.01500
Br1249     Br  0.60437105  0.93251910  0.40852886    -0.01500
Br1250     Br  0.67515339  0.87430476  0.42177445    -0.01500
C1251       C  0.90988842  0.87375517  0.53743228    -0.02600
C1252       C  0.91551378  0.91197352  0.50663945     0.07100
C1253       C  0.88949114  0.92289788  0.47977674    -0.02700
C1254       C  0.85841327  0.89561555  0.48340041    -0.02700
C1255       C  0.85270751  0.85783452  0.51443606     0.07200
C1256       C  0.87845799  0.84670993  0.54124031    -0.02900
Br1257     Br  0.86974311  0.79533358  0.58425459    -0.01400
Br1258     Br  0.94533184  0.85760177  0.57376005    -0.01500
Br1259     Br  0.82376524  0.90971631  0.44517655    -0.01500
Br1260     Br  0.89725812  0.96895239  0.93757076    -0.01500
C1261       C  0.89595956  0.65400488  0.95493562    -0.02600
C1262       C  0.86210068  0.64506301  0.98368742     0.07100
C1263       C  0.85763389  0.60764203  0.01509601    -0.02700
C1264       C  0.88491454  0.58112298  0.51506334    -0.02700
C1265       C  0.92097344  0.58736985  0.98864084     0.07200
C1266       C  0.92550901  0.62547575  0.95771773    -0.02900
Br1267     Br  0.97266753  0.64025423  0.92102426    -0.01400
Br1268     Br  0.90195499  0.70587665  0.91254140    -0.01500
Br1269     Br  0.87708763  0.52880202  0.55727207    -0.01500
Br1270     Br  0.80941292  0.59890469  0.55336174    -0.01500
C1271       C  0.62954058  0.63802074  0.93671788    -0.02600
C1272       C  0.64754878  0.63735471  0.97293840     0.07100
C1273       C  0.63475588  0.60931313  0.01170701    -0.02700
C1274       C  0.60437126  0.58103160  0.01431741    -0.02700
C1275       C  0.58468345  0.58276042  0.97897096     0.07200
C1276       C  0.59808027  0.61095180  0.93954048    -0.02900
Br1277     Br  0.57338049  0.61666709  0.38964437    -0.01400
Br1278     Br  0.64825447  0.67639562  0.88345366    -0.01500
Br1279     Br  0.59330649  0.53680105  0.06497881    -0.01500
Br1280     Br  0.65940183  0.60971579  0.06160772    -0.01500
loop_ 
_geom_bond_atom_site_label_1 
_geom_bond_atom_site_label_2 
_geom_bond_distance 
_geom_bond_site_symmetry_2 
_ccdc_geom_bond_type 
O1           Ni9   1.923       .  S
O1          C171   1.282       .  A
O2         Ni969   1.911   1_445  S
O2          C172   1.281   1_554  A
O3         Ni329   1.907   1_545  S
O3           C13   1.278   1_554  A
O4         Ni649   1.918   1_455  S
O4           C14   1.281       .  A
O5         Ni330   1.915       .  S
O5          C174   1.280       .  A
O6         Ni650   1.925   1_545  S
O6          C173   1.283       .  A
O7          Ni10   1.917   1_545  S
O7           C12   1.280       .  A
O8         Ni970   1.904       .  S
O8           C11   1.279       .  A
Ni9         O962   1.911       .  S
Ni9         O323   1.907       .  S
Ni9         O644   1.918       .  S
Ni9       Ni1130   2.380   1_554  S
Ni10        O325   1.915       .  S
Ni10        O646   1.925   1_465  S
Ni10        O968   1.905   1_455  S
Ni10      Ni1129   2.380   1_465  S
C11         O161   1.281       .  A
C11         C292   1.475       .  S
C12         O162   1.279       .  A
C12         C155   1.492       .  S
C13         O166   1.284       .  A
C13         C305   1.480       .  S
C14         O165   1.280   1_554  A
C14         C125   1.497       .  S
O15        Ni983   1.915   1_455  S
O15          C25   1.281       .  A
O16         Ni23   1.924       .  S
O16          C26   1.282       .  A
O17        Ni663   1.924   1_455  S
O17          C27   1.282       .  A
O18        Ni343   1.918       .  S
O18          C28   1.280       .  A
O19        Ni664   1.916       .  S
O19          C28   1.280       .  A
O20        Ni344   1.906       .  S
O20          C27   1.279       .  A
O21        Ni984   1.904       .  S
O21          C26   1.277       .  A
O22         Ni24   1.917       .  S
O22          C25   1.281       .  A
Ni23        O975   1.915       .  S
Ni23        O657   1.924       .  S
Ni23        O338   1.918       .  S
Ni23       Ni984   2.380       .  S
Ni24        O659   1.916   1_455  S
Ni24        O340   1.906   1_545  S
Ni24        O981   1.904   1_445  S
Ni24       Ni983   2.380   1_455  S
C25         C115   1.477       .  S
C26          C92   1.492       .  S
C27          C82   1.483       .  S
C28         C102   1.498       .  S
O29         Ni35   1.937       .  S
O29          C50   1.274       .  A
O30         Ni53   1.900       .  S
O30         C199   1.266   1_554  A
O31          H54   0.964       .  S
O31         Ni47   1.904       .  S
O31        Ni195   1.913       .  S
O31        Ni213   1.904       .  S
C32          O49   1.271       .  A
C32          O41   1.275       .  A
C32         C152   1.467       .  S
O33         Ni52   1.931       .  S
O33          C39   1.269       .  A
O34         Ni52   1.903       .  S
O34          C36   1.267       .  A
Ni35         O38   1.924       .  S
Ni35         O40   1.917       .  S
Ni35        O191   1.910   1_554  S
C36          O46   1.271       .  A
C36          C68   1.473       .  S
O37         Ni53   1.912       .  S
O37          C43   1.274       .  A
O38          C43   1.277       .  A
C39         O190   1.265       .  A
C39         C142   1.467       .  S
O40          C42   1.271       .  A
O41         Ni52   1.927       .  S
C42          O48   1.275       .  A
C42          C62   1.483       .  S
C43         C135   1.469       .  S
H44          O45   0.966   1_554  S
O45         Ni53   1.912   1_556  S
O45        Ni207   1.907       .  S
O45        Ni212   1.919       .  S
O46         Ni47   1.932       .  S
Ni47         O51   1.891       .  S
Ni47         O49   1.905       .  S
Ni47        O205   1.909       .  S
O48         Ni53   1.938       .  S
C50         O211   1.265   1_554  A
C50         C122   1.480       .  S
O51         C210   1.265       .  A
Ni52        O205   1.921       .  S
Ni53        O191   1.904   1_554  S
O55         Ni61   1.928       .  S
O55          C76   1.269       .  A
O56         Ni79   1.893       .  S
O56          C65   1.263       .  A
O57          H80   0.965       .  S
O57         Ni61   1.922       .  S
O57         Ni79   1.905       .  S
O57         Ni73   1.909       .  S
C58          O75   1.274       .  A
C58          O67   1.277       .  A
C58         C112   1.472       .  S
O59         Ni78   1.938       .  S
O59          C65   1.275       .  A
O60         Ni78   1.922       .  S
O60          C62   1.272       .  A
Ni61         O64   1.927       .  S
Ni61         O66   1.913       .  S
C62          O72   1.273       .  A
O63         Ni79   1.905       .  S
O63          C69   1.271       .  A
O64          C69   1.276       .  A
C65         C105   1.477       .  S
O66          C68   1.267       .  A
O67         Ni78   1.926       .  S
C68          O74   1.269       .  A
C69          C95   1.467       .  S
H70          O71   0.967       .  S
O71         Ni79   1.904       .  S
O71         Ni73   1.902       .  S
O71         Ni78   1.913       .  S
O72         Ni73   1.932       .  S
Ni73         O77   1.903       .  S
Ni73         O75   1.907       .  S
O74         Ni79   1.920       .  S
C76          O77   1.266       .  A
C76          C85   1.468       .  S
C81          C82   1.418       .  A
C81          C86   1.404       .  A
C81         Br88   1.937       .  S
C82          C83   1.416       .  A
C83          C84   1.409       .  A
C83         Br90   1.928       .  S
C84          C85   1.406       .  A
C84         Br89   1.931       .  S
C85          C86   1.405       .  A
C86         Br87   1.934       .  S
C91          C92   1.425       .  A
C91          C96   1.405       .  A
C91         Br98   1.939       .  S
C92          C93   1.421       .  A
C93          C94   1.409       .  A
C93        Br100   1.932       .  S
C94          C95   1.403       .  A
C94         Br99   1.932       .  S
C95          C96   1.403       .  A
C96         Br97   1.936       .  S
C101        C102   1.423       .  A
C101        C106   1.408       .  A
C101       Br108   1.933       .  S
C102        C103   1.424       .  A
C103        C104   1.409       .  A
C103       Br110   1.937       .  S
C104        C105   1.409       .  A
C104       Br109   1.938       .  S
C105        C106   1.404       .  A
C106       Br107   1.933       .  S
C111        C112   1.407       .  A
C111        C116   1.406       .  A
C111       Br118   1.930       .  S
C112        C113   1.410       .  A
C113        C114   1.405       .  A
C113       Br120   1.934       .  S
C114        C115   1.412       .  A
C114       Br119   1.932       .  S
C115        C116   1.411       .  A
C116       Br117   1.924       .  S
C121        C122   1.407       .  A
C121        C286   1.411       .  A
C121       Br288   1.931       .  S
C122        C123   1.410   1_554  A
C123        C124   1.409       .  A
C123       Br130   1.939       .  S
C124        C125   1.423   1_556  A
C124       Br129   1.937       .  S
C125        C286   1.422       .  A
C126        C281   1.411       .  A
C126        C285   1.426       .  A
C126       Br127   1.937       .  S
Br128       C281   1.935       .  S
C131        C132   1.417       .  A
C131        C136   1.411       .  A
C131       Br138   1.928       .  S
C132        C171   1.485       .  S
C132        C133   1.418   1_554  A
C133        C134   1.403       .  A
C133       Br300   1.936       .  S
C134        C135   1.405   1_556  A
C134       Br139   1.934       .  S
C135        C136   1.406       .  A
C136       Br137   1.930       .  S
Br140       C293   1.934       .  S
C141        C142   1.406       .  A
C141        C146   1.409       .  A
C141       Br148   1.929       .  S
C142        C143   1.405       .  A
C143        C304   1.404       .  A
C143       Br310   1.935       .  S
C144        C303   1.405       .  A
C144        C305   1.416   1_554  A
C144       Br149   1.934       .  S
C145        C173   1.481       .  S
C145        C146   1.414       .  A
C145        C304   1.417       .  A
C146       Br147   1.929       .  S
Br150       C303   1.935       .  S
C151        C152   1.404       .  A
C151        C156   1.411       .  A
C151       Br158   1.933       .  S
C152        C153   1.402       .  A
C153        C154   1.403       .  A
C153       Br160   1.936       .  S
C154        C155   1.424       .  A
C154       Br159   1.940       .  S
C155        C156   1.424       .  A
C156       Br317   1.934       .  S
Br157       C316   1.933       .  S
O161       Ni169   1.919       .  S
O162      Ni1129   1.909   1_455  S
O163       Ni489   1.906       .  S
O163        C173   1.278       .  A
O164       Ni809   1.916   1_455  S
O164        C174   1.280       .  A
O165       Ni490   1.916       .  S
O166       Ni810   1.927   1_545  S
O167       Ni170   1.921   1_545  S
O167        C172   1.280       .  A
O168      Ni1130   1.908       .  S
O168        C171   1.280   1_556  A
Ni169      O1122   1.909       .  S
Ni169       O483   1.906       .  S
Ni169       O804   1.916       .  S
Ni169      Ni970   2.380       .  S
Ni170       O485   1.916       .  S
Ni170       O806   1.927   1_465  S
Ni170      O1128   1.908   1_455  S
Ni170      Ni969   2.380   1_456  S
C172        C315   1.494       .  S
C174        C285   1.501       .  S
O175      Ni1143   1.919   1_455  S
O175        C185   1.281       .  A
O176       Ni183   1.925       .  S
O176        C186   1.283       .  A
O177       Ni823   1.927   1_455  S
O177        C187   1.283       .  A
O178       Ni503   1.923       .  S
O178        C188   1.283       .  A
O179       Ni824   1.912   1_545  S
O179        C188   1.279       .  A
O180       Ni504   1.903       .  S
O180        C187   1.277       .  A
O181      Ni1144   1.905       .  S
O181        C186   1.278       .  A
O182       Ni184   1.923   1_545  S
O182        C185   1.282       .  A
Ni183      O1135   1.919       .  S
Ni183       O817   1.927       .  S
Ni183       O498   1.923       .  S
Ni183     Ni1144   2.381       .  S
Ni184       O819   1.912   1_465  S
Ni184       O500   1.903       .  S
Ni184      O1141   1.905   1_455  S
Ni184     Ni1143   2.381   1_465  S
C185        C275   1.482       .  S
C186        C252   1.488       .  S
C187        C242   1.490       .  S
C188        C262   1.495       .  S
O189       Ni195   1.935       .  S
O189        C210   1.273       .  A
O190       Ni213   1.898       .  S
O191        H214   0.966       .  S
O191       Ni207   1.909       .  S
C192        O209   1.273       .  A
C192        O201   1.277       .  A
C192        C312   1.470       .  S
O193       Ni212   1.935       .  S
O193        C199   1.271       .  A
O194       Ni212   1.907       .  S
O194        C196   1.268       .  A
Ni195       O198   1.921       .  S
Ni195       O200   1.920       .  S
C196        O206   1.270       .  A
C196        C228   1.472       .  S
O197       Ni213   1.909       .  S
O197        C203   1.273       .  A
O198        C203   1.276       .  A
C199        C302   1.470       .  S
O200        C202   1.272       .  A
O201       Ni212   1.930       .  S
C202        O208   1.273       .  A
C202        C222   1.486       .  S
C203        C295   1.467       .  S
H204        O205   0.970       .  S
O205       Ni213   1.910       .  S
O206       Ni207   1.928       .  S
Ni207       O211   1.896       .  S
Ni207       O209   1.910       .  S
O208       Ni213   1.937       .  S
C210        C282   1.481       .  S
O215       Ni221   1.929       .  S
O215        C236   1.270       .  A
O216       Ni239   1.896       .  S
O216        C225   1.264       .  A
O217        H240   0.965       .  S
O217       Ni221   1.920       .  S
O217       Ni239   1.907       .  S
O217       Ni233   1.910       .  S
C218        O235   1.274       .  A
C218        O227   1.278       .  A
C218        C272   1.475       .  S
O219       Ni238   1.937       .  S
O219        C225   1.275       .  A
O220       Ni238   1.926       .  S
O220        C222   1.272       .  A
Ni221       O224   1.925       .  S
Ni221       O226   1.912       .  S
C222        O232   1.272       .  A
O223       Ni239   1.909       .  S
O223        C229   1.273       .  A
O224        C229   1.276       .  A
C225        C265   1.476       .  S
O226        C228   1.268       .  A
O227       Ni238   1.929       .  S
C228        O234   1.269       .  A
C229        C255   1.468       .  S
H230        O231   0.967       .  S
O231       Ni239   1.906       .  S
O231       Ni233   1.901       .  S
O231       Ni238   1.912       .  S
O232       Ni233   1.932       .  S
Ni233       O237   1.899       .  S
Ni233       O235   1.909       .  S
O234       Ni239   1.921       .  S
C236        O237   1.265       .  A
C236        C245   1.471       .  S
C241        C242   1.423       .  A
C241        C246   1.405       .  A
C241       Br248   1.939       .  S
C242        C243   1.419       .  A
C243        C244   1.410       .  A
C243       Br250   1.930       .  S
C244        C245   1.406       .  A
C244       Br249   1.933       .  S
C245        C246   1.405       .  A
C246       Br247   1.937       .  S
C251        C252   1.422       .  A
C251        C256   1.405       .  A
C251       Br258   1.938       .  S
C252        C253   1.419       .  A
C253        C254   1.410       .  A
C253       Br260   1.930       .  S
C254        C255   1.404       .  A
C254       Br259   1.931       .  S
C255        C256   1.404       .  A
C256       Br257   1.936       .  S
C261        C262   1.422       .  A
C261        C266   1.408       .  A
C261       Br268   1.930       .  S
C262        C263   1.421       .  A
C263        C264   1.410       .  A
C263       Br270   1.936       .  S
C264        C265   1.409       .  A
C264       Br269   1.936       .  S
C265        C266   1.403       .  A
C266       Br267   1.932       .  S
C271        C272   1.407       .  A
C271        C276   1.408       .  A
C271       Br278   1.931       .  S
C272        C273   1.411       .  A
C273        C274   1.407       .  A
C273       Br280   1.933       .  S
C274        C275   1.413       .  A
C274       Br279   1.932       .  S
C275        C276   1.411       .  A
C276       Br277   1.920       .  S
C281        C282   1.408       .  A
C282        C283   1.411       .  A
C283        C284   1.408       .  A
C283       Br290   1.941       .  S
C284        C285   1.425       .  A
C284       Br289   1.940       .  S
C286       Br287   1.935       .  S
C291        C292   1.413       .  A
C291        C296   1.408       .  A
C291       Br298   1.928       .  S
C292        C293   1.415       .  A
C293        C294   1.402       .  A
C294        C295   1.407       .  A
C294       Br299   1.934       .  S
C295        C296   1.406       .  A
C296       Br297   1.929       .  S
C301        C302   1.407       .  A
C301        C306   1.409       .  A
C301       Br308   1.928       .  S
C302        C303   1.406   1_556  A
C304       Br309   1.935       .  S
C305        C306   1.412       .  A
C306       Br307   1.929       .  S
C311        C312   1.406       .  A
C311        C316   1.413       .  A
C311       Br318   1.932       .  S
C312        C313   1.402   1_556  A
C313        C314   1.403       .  A
C313       Br320   1.936       .  S
C314        C315   1.422   1_554  A
C314       Br319   1.939       .  S
C315        C316   1.424       .  A
O321       Ni329   1.923       .  S
O321        C491   1.282       .  A
O322       Ni649   1.911   1_455  S
O322        C492   1.281   1_554  A
O323        C333   1.278   1_554  A
O324       Ni969   1.918   1_455  S
O324        C334   1.281       .  A
O325        C494   1.280       .  A
O326       Ni970   1.925       .  S
O326        C493   1.283       .  A
O327       Ni330   1.917       .  S
O327        C332   1.280       .  A
O328       Ni650   1.905       .  S
O328        C331   1.279       .  A
Ni329       O642   1.911   1_565  S
Ni329       O964   1.918       .  S
Ni329      Ni810   2.380   1_554  S
Ni330       O966   1.925   1_455  S
Ni330       O648   1.905   1_455  S
Ni330      Ni809   2.380   1_455  S
C331        O481   1.281       .  A
C331        C612   1.475       .  S
C332        O482   1.279       .  A
C332        C475   1.492       .  S
C333        O486   1.284       .  A
C333        C625   1.480       .  S
C334        O485   1.280   1_554  A
C334        C445   1.497       .  S
O335       Ni663   1.915   1_455  S
O335        C345   1.281       .  A
O336       Ni343   1.924   1_565  S
O336        C346   1.282       .  A
O337       Ni983   1.924   1_465  S
O337        C347   1.282       .  A
O338        C348   1.280       .  A
O339       Ni984   1.916       .  S
O339        C348   1.280       .  A
O340        C347   1.279       .  A
O341       Ni664   1.904   1_565  S
O341        C346   1.277       .  A
O342       Ni344   1.917       .  S
O342        C345   1.281       .  A
Ni343       O655   1.915       .  S
Ni343       O977   1.924   1_545  S
Ni343      Ni664   2.380       .  S
Ni344       O979   1.916   1_455  S
Ni344       O661   1.904   1_455  S
Ni344      Ni663   2.380   1_455  S
C345        C435   1.477       .  S
C346        C412   1.492       .  S
C347        C402   1.483       .  S
C348        C422   1.498       .  S
O349       Ni355   1.937       .  S
O349        C370   1.274       .  A
O350       Ni373   1.900       .  S
O350        C519   1.266   1_554  A
O351        H374   0.964       .  S
O351       Ni515   1.913       .  S
O351       Ni533   1.904       .  S
O351       Ni367   1.904       .  S
C352        O369   1.271       .  A
C352        O361   1.275       .  A
C352        C472   1.467       .  S
O353       Ni372   1.931       .  S
O353        C359   1.269       .  A
O354       Ni372   1.903       .  S
O354        C356   1.267       .  A
Ni355       O358   1.924       .  S
Ni355       O360   1.917       .  S
Ni355       O511   1.910   1_554  S
C356        O366   1.271       .  A
C356        C388   1.473       .  S
O357       Ni373   1.912       .  S
O357        C363   1.274       .  A
O358        C363   1.277       .  A
C359        O510   1.265       .  A
C359        C462   1.467       .  S
O360        C362   1.271       .  A
O361       Ni372   1.927       .  S
C362        O368   1.275       .  A
C362        C382   1.483       .  S
C363        C455   1.469       .  S
H364        O365   0.966   1_554  S
O365       Ni373   1.912   1_556  S
O365       Ni527   1.907       .  S
O365       Ni532   1.919       .  S
O366       Ni367   1.932       .  S
Ni367       O371   1.891       .  S
Ni367       O369   1.905       .  S
Ni367       O525   1.909       .  S
O368       Ni373   1.938       .  S
C370        O531   1.265   1_554  A
C370        C442   1.480       .  S
O371        C530   1.265       .  A
Ni372       O525   1.921       .  S
Ni373       O511   1.904   1_554  S
O375       Ni381   1.928       .  S
O375        C396   1.269       .  A
O376       Ni399   1.893       .  S
O376        C385   1.263       .  A
O377        H400   0.965       .  S
O377       Ni381   1.922       .  S
O377       Ni399   1.905       .  S
O377       Ni393   1.909       .  S
C378        O395   1.274       .  A
C378        O387   1.277       .  A
C378        C432   1.472       .  S
O379       Ni398   1.938       .  S
O379        C385   1.275       .  A
O380       Ni398   1.922       .  S
O380        C382   1.272       .  A
Ni381       O384   1.927       .  S
Ni381       O386   1.913       .  S
C382        O392   1.273       .  A
O383       Ni399   1.905       .  S
O383        C389   1.271       .  A
O384        C389   1.276       .  A
C385        C425   1.476       .  S
O386        C388   1.267       .  A
O387       Ni398   1.926       .  S
C388        O394   1.269       .  A
C389        C415   1.467       .  S
H390        O391   0.967       .  S
O391       Ni399   1.904       .  S
O391       Ni393   1.902       .  S
O391       Ni398   1.913       .  S
O392       Ni393   1.932       .  S
Ni393       O397   1.903       .  S
Ni393       O395   1.907       .  S
O394       Ni399   1.920       .  S
C396        O397   1.266       .  A
C396        C405   1.468       .  S
C401        C402   1.418       .  A
C401        C406   1.404       .  A
C401       Br408   1.937       .  S
C402        C403   1.416       .  A
C403        C404   1.409       .  A
C403       Br410   1.928       .  S
C404        C405   1.406       .  A
C404       Br409   1.931       .  S
C405        C406   1.405       .  A
C406       Br407   1.934       .  S
C411        C412   1.425       .  A
C411        C416   1.405       .  A
C411       Br418   1.939       .  S
C412        C413   1.421       .  A
C413        C414   1.409       .  A
C413       Br420   1.932       .  S
C414        C415   1.403       .  A
C414       Br419   1.932       .  S
C415        C416   1.403       .  A
C416       Br417   1.936       .  S
C421        C422   1.423       .  A
C421        C426   1.408       .  A
C421       Br428   1.933       .  S
C422        C423   1.424       .  A
C423        C424   1.409       .  A
C423       Br430   1.937       .  S
C424        C425   1.409       .  A
C424       Br429   1.938       .  S
C425        C426   1.404       .  A
C426       Br427   1.933       .  S
C431        C432   1.407       .  A
C431        C436   1.406       .  A
C431       Br438   1.930       .  S
C432        C433   1.410       .  A
C433        C434   1.405       .  A
C433       Br440   1.934       .  S
C434        C435   1.412       .  A
C434       Br439   1.932       .  S
C435        C436   1.411       .  A
C436       Br437   1.924       .  S
C441        C442   1.407       .  A
C441        C606   1.411       .  A
C441       Br608   1.931       .  S
C442        C443   1.410   1_554  A
C443        C444   1.409       .  A
C443       Br450   1.939       .  S
C444        C445   1.423   1_556  A
C444       Br449   1.937       .  S
C445        C606   1.422       .  A
C446        C601   1.411       .  A
C446        C605   1.426       .  A
C446       Br447   1.937       .  S
Br448       C601   1.935       .  S
C451        C452   1.417       .  A
C451        C456   1.411       .  A
C451       Br458   1.928       .  S
C452        C491   1.485       .  S
C452        C453   1.418   1_554  A
C453        C454   1.403       .  A
C453       Br620   1.936       .  S
C454        C455   1.405   1_556  A
C454       Br459   1.934       .  S
C455        C456   1.406       .  A
C456       Br457   1.930       .  S
Br460       C613   1.934       .  S
C461        C462   1.406       .  A
C461        C466   1.409       .  A
C461       Br468   1.929       .  S
C462        C463   1.405       .  A
C463        C624   1.404       .  A
C463       Br630   1.935       .  S
C464        C623   1.405       .  A
C464        C625   1.416   1_554  A
C464       Br469   1.934       .  S
C465        C493   1.481       .  S
C465        C624   1.417       .  A
C465        C466   1.414       .  A
C466       Br467   1.929       .  S
Br470       C623   1.935       .  S
C471        C472   1.404       .  A
C471        C476   1.411       .  A
C471       Br478   1.933       .  S
C472        C473   1.402       .  A
C473        C474   1.403       .  A
C473       Br480   1.936       .  S
C474        C475   1.424       .  A
C474       Br479   1.940       .  S
C475        C476   1.424       .  A
C476       Br637   1.934       .  S
Br477       C636   1.933       .  S
O481       Ni489   1.919   1_565  S
O482       Ni809   1.909   1_455  S
O483        C493   1.278       .  A
O484      Ni1129   1.916   1_465  S
O484        C494   1.280       .  A
O486      Ni1130   1.927       .  S
O487       Ni490   1.921       .  S
O487        C492   1.280       .  A
O488       Ni810   1.908       .  S
O488        C491   1.280   1_556  A
Ni489       O802   1.909       .  S
Ni489      O1124   1.916   1_545  S
Ni489      Ni650   2.380   1_545  S
Ni490      O1126   1.927   1_455  S
Ni490       O808   1.908   1_455  S
Ni490      Ni649   2.380   1_456  S
C492        C635   1.494       .  S
C494        C605   1.501       .  S
O495       Ni823   1.919   1_455  S
O495        C505   1.281       .  A
O496       Ni503   1.925   1_565  S
O496        C506   1.283       .  A
O497      Ni1143   1.927   1_465  S
O497        C507   1.283       .  A
O498        C508   1.283       .  A
O499      Ni1144   1.912       .  S
O499        C508   1.279       .  A
O500        C507   1.277       .  A
O501       Ni824   1.905       .  S
O501        C506   1.278       .  A
O502       Ni504   1.923       .  S
O502        C505   1.282       .  A
Ni503       O815   1.919       .  S
Ni503      O1137   1.927   1_545  S
Ni503      Ni824   2.381   1_545  S
Ni504      O1139   1.912   1_455  S
Ni504       O821   1.905   1_455  S
Ni504      Ni823   2.381   1_455  S
C505        C595   1.482       .  S
C506        C572   1.488       .  S
C507        C562   1.490       .  S
C508        C582   1.495       .  S
O509       Ni515   1.935       .  S
O509        C530   1.273       .  A
O510       Ni533   1.898       .  S
O511        H534   0.966       .  S
O511       Ni527   1.909       .  S
C512        O529   1.273       .  A
C512        O521   1.277       .  A
C512        C632   1.470       .  S
O513       Ni532   1.935       .  S
O513        C519   1.271       .  A
O514       Ni532   1.907       .  S
O514        C516   1.268       .  A
Ni515       O518   1.921       .  S
Ni515       O520   1.920       .  S
C516        O526   1.270       .  A
C516        C548   1.473       .  S
O517       Ni533   1.909       .  S
O517        C523   1.273       .  A
O518        C523   1.276       .  A
C519        C622   1.470       .  S
O520        C522   1.272       .  A
O521       Ni532   1.930       .  S
C522        O528   1.273       .  A
C522        C542   1.486       .  S
C523        C615   1.467       .  S
H524        O525   0.970       .  S
O525       Ni533   1.910       .  S
O526       Ni527   1.928       .  S
Ni527       O531   1.896       .  S
Ni527       O529   1.910       .  S
O528       Ni533   1.937       .  S
C530        C602   1.481       .  S
O535       Ni541   1.929       .  S
O535        C556   1.270       .  A
O536       Ni559   1.896       .  S
O536        C545   1.264       .  A
O537        H560   0.965       .  S
O537       Ni541   1.920       .  S
O537       Ni559   1.907       .  S
O537       Ni553   1.910       .  S
C538        O555   1.274       .  A
C538        O547   1.278       .  A
C538        C592   1.475       .  S
O539       Ni558   1.937       .  S
O539        C545   1.275       .  A
O540       Ni558   1.926       .  S
O540        C542   1.272       .  A
Ni541       O544   1.925       .  S
Ni541       O546   1.912       .  S
C542        O552   1.272       .  A
O543       Ni559   1.909       .  S
O543        C549   1.273       .  A
O544        C549   1.276       .  A
C545        C585   1.476       .  S
O546        C548   1.268       .  A
O547       Ni558   1.929       .  S
C548        O554   1.269       .  A
C549        C575   1.468       .  S
H550        O551   0.967       .  S
O551       Ni559   1.906       .  S
O551       Ni553   1.901       .  S
O551       Ni558   1.912       .  S
O552       Ni553   1.932       .  S
Ni553       O557   1.899       .  S
Ni553       O555   1.909       .  S
O554       Ni559   1.921       .  S
C556        O557   1.265       .  A
C556        C565   1.471       .  S
C561        C562   1.423       .  A
C561        C566   1.405       .  A
C561       Br568   1.939       .  S
C562        C563   1.419       .  A
C563        C564   1.410       .  A
C563       Br570   1.930       .  S
C564        C565   1.406       .  A
C564       Br569   1.933       .  S
C565        C566   1.405       .  A
C566       Br567   1.937       .  S
C571        C572   1.422       .  A
C571        C576   1.405       .  A
C571       Br578   1.938       .  S
C572        C573   1.419       .  A
C573        C574   1.410       .  A
C573       Br580   1.930       .  S
C574        C575   1.404       .  A
C574       Br579   1.931       .  S
C575        C576   1.404       .  A
C576       Br577   1.936       .  S
C581        C582   1.422       .  A
C581        C586   1.408       .  A
C581       Br588   1.930       .  S
C582        C583   1.421       .  A
C583        C584   1.410       .  A
C583       Br590   1.936       .  S
C584        C585   1.409       .  A
C584       Br589   1.936       .  S
C585        C586   1.403       .  A
C586       Br587   1.932       .  S
C591        C592   1.407       .  A
C591        C596   1.408       .  A
C591       Br598   1.931       .  S
C592        C593   1.411       .  A
C593        C594   1.407       .  A
C593       Br600   1.933       .  S
C594        C595   1.413       .  A
C594       Br599   1.932       .  S
C595        C596   1.411       .  A
C596       Br597   1.920       .  S
C601        C602   1.408       .  A
C602        C603   1.411       .  A
C603        C604   1.408       .  A
C603       Br610   1.941       .  S
C604        C605   1.425       .  A
C604       Br609   1.940       .  S
C606       Br607   1.935       .  S
C611        C612   1.413       .  A
C611        C616   1.408       .  A
C611       Br618   1.928       .  S
C612        C613   1.415       .  A
C613        C614   1.402       .  A
C614        C615   1.407       .  A
C614       Br619   1.934       .  S
C615        C616   1.406       .  A
C616       Br617   1.929       .  S
C621        C622   1.407       .  A
C621        C626   1.409       .  A
C621       Br628   1.928       .  S
C622        C623   1.406   1_556  A
C624       Br629   1.935       .  S
C625        C626   1.412       .  A
C626       Br627   1.929       .  S
C631        C632   1.406       .  A
C631        C636   1.413       .  A
C631       Br638   1.932       .  S
C632        C633   1.402   1_556  A
C633        C634   1.403       .  A
C633       Br640   1.936       .  S
C634        C635   1.422   1_554  A
C634       Br639   1.939       .  S
C635        C636   1.424       .  A
O641       Ni649   1.923       .  S
O641        C811   1.282       .  A
O642        C812   1.281   1_554  A
O643       Ni969   1.907   1_545  S
O643        C653   1.278   1_554  A
O644        C654   1.281       .  A
O645       Ni970   1.915       .  S
O645        C814   1.280       .  A
O646        C813   1.283       .  A
O647       Ni650   1.917   1_545  S
O647        C652   1.280       .  A
O648        C651   1.279       .  A
Ni649       O963   1.907       .  S
Ni650       O965   1.915       .  S
C651        O801   1.281       .  A
C651        C932   1.475       .  S
C652        O802   1.279       .  A
C652        C795   1.492       .  S
C653        O806   1.284       .  A
C653        C945   1.480       .  S
C654        O805   1.280   1_554  A
C654        C765   1.497       .  S
O655        C665   1.281       .  A
O656       Ni663   1.924       .  S
O656        C666   1.282       .  A
O657        C667   1.282       .  A
O658       Ni983   1.918       .  S
O658        C668   1.280       .  A
O659        C668   1.280       .  A
O660       Ni984   1.906       .  S
O660        C667   1.279       .  A
O661        C666   1.277       .  A
O662       Ni664   1.917       .  S
O662        C665   1.281       .  A
Ni663       O978   1.918       .  S
Ni664       O980   1.906   1_545  S
C665        C755   1.477       .  S
C666        C732   1.492       .  S
C667        C722   1.483       .  S
C668        C742   1.498       .  S
O669       Ni675   1.937       .  S
O669        C690   1.274       .  A
O670       Ni693   1.900       .  S
O670        C839   1.266   1_554  A
O671        H694   0.964       .  S
O671       Ni835   1.913       .  S
O671       Ni853   1.904       .  S
O671       Ni687   1.904       .  S
C672        O689   1.271       .  A
C672        O681   1.275       .  A
C672        C792   1.467       .  S
O673       Ni692   1.931       .  S
O673        C679   1.269       .  A
O674       Ni692   1.903       .  S
O674        C676   1.267       .  A
Ni675       O678   1.924       .  S
Ni675       O680   1.917       .  S
Ni675       O831   1.910   1_554  S
C676        O686   1.271       .  A
C676        C708   1.473       .  S
O677       Ni693   1.912       .  S
O677        C683   1.274       .  A
O678        C683   1.277       .  A
C679        O830   1.265       .  A
C679        C782   1.467       .  S
O680        C682   1.271       .  A
O681       Ni692   1.927       .  S
C682        O688   1.275       .  A
C682        C702   1.483       .  S
C683        C775   1.469       .  S
H684        O685   0.966   1_554  S
O685       Ni693   1.912   1_556  S
O685       Ni847   1.907       .  S
O685       Ni852   1.919       .  S
O686       Ni687   1.932       .  S
Ni687       O691   1.891       .  S
Ni687       O689   1.905       .  S
Ni687       O845   1.908       .  S
O688       Ni693   1.938       .  S
C690        O851   1.265   1_554  A
C690        C762   1.480       .  S
O691        C850   1.265       .  A
Ni692       O845   1.921       .  S
Ni693       O831   1.904   1_554  S
O695       Ni701   1.928       .  S
O695        C716   1.269       .  A
O696       Ni719   1.893       .  S
O696        C705   1.263       .  A
O697        H720   0.965       .  S
O697       Ni701   1.922       .  S
O697       Ni719   1.905       .  S
O697       Ni713   1.909       .  S
C698        O715   1.274       .  A
C698        O707   1.277       .  A
C698        C752   1.472       .  S
O699       Ni718   1.938       .  S
O699        C705   1.275       .  A
O700       Ni718   1.922       .  S
O700        C702   1.272       .  A
Ni701       O704   1.927       .  S
Ni701       O706   1.913       .  S
C702        O712   1.273       .  A
O703       Ni719   1.905       .  S
O703        C709   1.271       .  A
O704        C709   1.276       .  A
C705        C745   1.477       .  S
O706        C708   1.267       .  A
O707       Ni718   1.926       .  S
C708        O714   1.269       .  A
C709        C735   1.467       .  S
H710        O711   0.967       .  S
O711       Ni719   1.904       .  S
O711       Ni713   1.902       .  S
O711       Ni718   1.913       .  S
O712       Ni713   1.932       .  S
Ni713       O717   1.903       .  S
Ni713       O715   1.907       .  S
O714       Ni719   1.920       .  S
C716        O717   1.266       .  A
C716        C725   1.468       .  S
C721        C722   1.418       .  A
C721        C726   1.404       .  A
C721       Br728   1.937       .  S
C722        C723   1.416       .  A
C723        C724   1.409       .  A
C723       Br730   1.928       .  S
C724        C725   1.406       .  A
C724       Br729   1.931       .  S
C725        C726   1.405       .  A
C726       Br727   1.934       .  S
C731        C732   1.425       .  A
C731        C736   1.405       .  A
C731       Br738   1.939       .  S
C732        C733   1.421       .  A
C733        C734   1.409       .  A
C733       Br740   1.932       .  S
C734        C735   1.403       .  A
C734       Br739   1.932       .  S
C735        C736   1.403       .  A
C736       Br737   1.936       .  S
C741        C742   1.423       .  A
C741        C746   1.408       .  A
C741       Br748   1.933       .  S
C742        C743   1.424       .  A
C743        C744   1.409       .  A
C743       Br750   1.937       .  S
C744        C745   1.409       .  A
C744       Br749   1.938       .  S
C745        C746   1.404       .  A
C746       Br747   1.933       .  S
C751        C752   1.407       .  A
C751        C756   1.406       .  A
C751       Br758   1.930       .  S
C752        C753   1.410       .  A
C753        C754   1.405       .  A
C753       Br760   1.934       .  S
C754        C755   1.412       .  A
C754       Br759   1.932       .  S
C755        C756   1.411       .  A
C756       Br757   1.924       .  S
C761        C762   1.407       .  A
C761        C926   1.411       .  A
C761       Br928   1.931       .  S
C762        C763   1.410   1_554  A
C763        C764   1.409       .  A
C763       Br770   1.939       .  S
C764        C765   1.423   1_556  A
C764       Br769   1.937       .  S
C765        C926   1.422       .  A
C766        C921   1.411       .  A
C766        C925   1.426       .  A
C766       Br767   1.937       .  S
Br768       C921   1.935       .  S
C771        C772   1.417       .  A
C771        C776   1.411       .  A
C771       Br778   1.928       .  S
C772        C811   1.485       .  S
C772        C773   1.418   1_554  A
C773        C774   1.403       .  A
C773       Br940   1.936       .  S
C774        C775   1.405   1_556  A
C774       Br779   1.934       .  S
C775        C776   1.406       .  A
C776       Br777   1.930       .  S
Br780       C933   1.934       .  S
C781        C782   1.406       .  A
C781        C786   1.409       .  A
C781       Br788   1.929       .  S
C782        C783   1.405       .  A
C783        C944   1.404       .  A
C783       Br950   1.935       .  S
C784        C943   1.405       .  A
C784        C945   1.416   1_554  A
C784       Br789   1.934       .  S
C785        C813   1.481       .  S
C785        C944   1.417       .  A
C785        C786   1.414       .  A
C786       Br787   1.929       .  S
Br790       C943   1.935       .  S
C791        C792   1.404       .  A
C791        C796   1.411       .  A
C791       Br798   1.933       .  S
C792        C793   1.402       .  A
C793        C794   1.403       .  A
C793       Br800   1.936       .  S
C794        C795   1.424       .  A
C794       Br799   1.940       .  S
C795        C796   1.424       .  A
C796       Br957   1.934       .  S
Br797       C956   1.933       .  S
O801       Ni809   1.919       .  S
O803      Ni1129   1.906       .  S
O803        C813   1.278       .  A
O804        C814   1.280       .  A
O805      Ni1130   1.916       .  S
O807       Ni810   1.921   1_545  S
O807        C812   1.280       .  A
O808        C811   1.280   1_556  A
Ni809      O1123   1.906       .  S
Ni810      O1125   1.916       .  S
C812        C955   1.494       .  S
C814        C925   1.501       .  S
O815        C825   1.281       .  A
O816       Ni823   1.925       .  S
O816        C826   1.283       .  A
O817        C827   1.283       .  A
O818      Ni1143   1.923       .  S
O818        C828   1.283       .  A
O819        C828   1.279       .  A
O820      Ni1144   1.903       .  S
O820        C827   1.277       .  A
O821        C826   1.278       .  A
O822       Ni824   1.923   1_545  S
O822        C825   1.282       .  A
Ni823      O1138   1.923       .  S
Ni824      O1140   1.903       .  S
C825        C915   1.482       .  S
C826        C892   1.488       .  S
C827        C882   1.490       .  S
C828        C902   1.495       .  S
O829       Ni835   1.935       .  S
O829        C850   1.273       .  A
O830       Ni853   1.898       .  S
O831        H854   0.966       .  S
O831       Ni847   1.909       .  S
C832        O849   1.273       .  A
C832        O841   1.277       .  A
C832        C952   1.470       .  S
O833       Ni852   1.935       .  S
O833        C839   1.271       .  A
O834       Ni852   1.907       .  S
O834        C836   1.268       .  A
Ni835       O838   1.921       .  S
Ni835       O840   1.920       .  S
C836        O846   1.270       .  A
C836        C868   1.473       .  S
O837       Ni853   1.909       .  S
O837        C843   1.273       .  A
O838        C843   1.276       .  A
C839        C942   1.470       .  S
O840        C842   1.272       .  A
O841       Ni852   1.930       .  S
C842        O848   1.273       .  A
C842        C862   1.486       .  S
C843        C935   1.467       .  S
H844        O845   0.970       .  S
O845       Ni853   1.910       .  S
O846       Ni847   1.928       .  S
Ni847       O851   1.896       .  S
Ni847       O849   1.910       .  S
O848       Ni853   1.937       .  S
C850        C922   1.481       .  S
O855       Ni861   1.929       .  S
O855        C876   1.270       .  A
O856       Ni879   1.896       .  S
O856        C865   1.264       .  A
O857        H880   0.965       .  S
O857       Ni861   1.920       .  S
O857       Ni879   1.907       .  S
O857       Ni873   1.910       .  S
C858        O875   1.274       .  A
C858        O867   1.278       .  A
C858        C912   1.475       .  S
O859       Ni878   1.937       .  S
O859        C865   1.275       .  A
O860       Ni878   1.926       .  S
O860        C862   1.272       .  A
Ni861       O864   1.925       .  S
Ni861       O866   1.912       .  S
C862        O872   1.272       .  A
O863       Ni879   1.909       .  S
O863        C869   1.273       .  A
O864        C869   1.276       .  A
C865        C905   1.476       .  S
O866        C868   1.268       .  A
O867       Ni878   1.929       .  S
C868        O874   1.269       .  A
C869        C895   1.468       .  S
H870        O871   0.967       .  S
O871       Ni879   1.906       .  S
O871       Ni873   1.901       .  S
O871       Ni878   1.912       .  S
O872       Ni873   1.932       .  S
Ni873       O877   1.899       .  S
Ni873       O875   1.909       .  S
O874       Ni879   1.921       .  S
C876        O877   1.265       .  A
C876        C885   1.471       .  S
C881        C882   1.423       .  A
C881        C886   1.405       .  A
C881       Br888   1.939       .  S
C882        C883   1.419       .  A
C883        C884   1.410       .  A
C883       Br890   1.930       .  S
C884        C885   1.406       .  A
C884       Br889   1.933       .  S
C885        C886   1.405       .  A
C886       Br887   1.937       .  S
C891        C892   1.422       .  A
C891        C896   1.405       .  A
C891       Br898   1.938       .  S
C892        C893   1.419       .  A
C893        C894   1.410       .  A
C893       Br900   1.930       .  S
C894        C895   1.404       .  A
C894       Br899   1.931       .  S
C895        C896   1.404       .  A
C896       Br897   1.936       .  S
C901        C902   1.422       .  A
C901        C906   1.408       .  A
C901       Br908   1.930       .  S
C902        C903   1.421       .  A
C903        C904   1.410       .  A
C903       Br910   1.936       .  S
C904        C905   1.409       .  A
C904       Br909   1.936       .  S
C905        C906   1.403       .  A
C906       Br907   1.932       .  S
C911        C912   1.407       .  A
C911        C916   1.408       .  A
C911       Br918   1.931       .  S
C912        C913   1.411       .  A
C913        C914   1.407       .  A
C913       Br920   1.933       .  S
C914        C915   1.413       .  A
C914       Br919   1.932       .  S
C915        C916   1.411       .  A
C916       Br917   1.920       .  S
C921        C922   1.408       .  A
C922        C923   1.411       .  A
C923        C924   1.408       .  A
C923       Br930   1.941       .  S
C924        C925   1.425       .  A
C924       Br929   1.940       .  S
C926       Br927   1.935       .  S
C931        C932   1.413       .  A
C931        C936   1.408       .  A
C931       Br938   1.928       .  S
C932        C933   1.415       .  A
C933        C934   1.402       .  A
C934        C935   1.407       .  A
C934       Br939   1.934       .  S
C935        C936   1.406       .  A
C936       Br937   1.929       .  S
C941        C942   1.407       .  A
C941        C946   1.409       .  A
C941       Br948   1.928       .  S
C942        C943   1.406   1_556  A
C944       Br949   1.935       .  S
C945        C946   1.412       .  A
C946       Br947   1.929       .  S
C951        C952   1.406       .  A
C951        C956   1.413       .  A
C951       Br958   1.932       .  S
C952        C953   1.402   1_556  A
C953        C954   1.403       .  A
C953       Br960   1.936       .  S
C954        C955   1.422   1_554  A
C954       Br959   1.939       .  S
C955        C956   1.424       .  A
O961       Ni969   1.923       .  S
O961       C1131   1.282       .  A
O962       C1132   1.281   1_554  A
O963        C973   1.278   1_554  A
O964        C974   1.281       .  A
O965       C1134   1.280       .  A
O966       C1133   1.283       .  A
O967       Ni970   1.917       .  S
O967        C972   1.280       .  A
O968        C971   1.279       .  A
C971       O1121   1.281       .  A
C971       C1252   1.475       .  S
C972       O1122   1.279       .  A
C972       C1115   1.492       .  S
C973       O1126   1.284       .  A
C973       C1265   1.480       .  S
C974       O1125   1.280   1_554  A
C974       C1085   1.497       .  S
O975        C985   1.281       .  A
O976       Ni983   1.924   1_565  S
O976        C986   1.282       .  A
O977        C987   1.282       .  A
O978        C988   1.280       .  A
O979        C988   1.280       .  A
O980        C987   1.279       .  A
O981        C986   1.277       .  A
O982       Ni984   1.917       .  S
O982        C985   1.281       .  A
C985       C1075   1.477       .  S
C986       C1052   1.492       .  S
C987       C1042   1.483       .  S
C988       C1062   1.498       .  S
O989       Ni995   1.937       .  S
O989       C1010   1.274       .  A
O990      Ni1013   1.900       .  S
O990       C1159   1.266   1_554  A
O991       H1014   0.964       .  S
O991      Ni1155   1.913       .  S
O991      Ni1173   1.904       .  S
O991      Ni1007   1.904       .  S
C992       O1009   1.271       .  A
C992       O1001   1.275       .  A
C992       C1112   1.467       .  S
O993      Ni1012   1.931       .  S
O993        C999   1.269       .  A
O994      Ni1012   1.903       .  S
O994        C996   1.267       .  A
Ni995       O998   1.924       .  S
Ni995      O1000   1.917       .  S
Ni995      O1151   1.910   1_554  S
C996       O1006   1.271       .  A
C996       C1028   1.473       .  S
O997      Ni1013   1.912       .  S
O997       C1003   1.274       .  A
O998       C1003   1.277       .  A
C999       O1150   1.265       .  A
C999       C1102   1.467       .  S
O1000      C1002   1.271       .  A
O1001     Ni1012   1.927       .  S
C1002      O1008   1.275       .  A
C1002      C1022   1.483       .  S
C1003      C1095   1.469       .  S
H1004      O1005   0.966   1_554  S
O1005     Ni1013   1.912   1_556  S
O1005     Ni1167   1.907       .  S
O1005     Ni1172   1.919       .  S
O1006     Ni1007   1.932       .  S
Ni1007     O1011   1.891       .  S
Ni1007     O1009   1.905       .  S
Ni1007     O1165   1.908       .  S
O1008     Ni1013   1.938       .  S
C1010      O1171   1.265   1_554  A
C1010      C1082   1.480       .  S
O1011      C1170   1.265       .  A
Ni1012     O1165   1.921       .  S
Ni1013     O1151   1.904   1_554  S
O1015     Ni1021   1.928       .  S
O1015      C1036   1.269       .  A
O1016     Ni1039   1.893       .  S
O1016      C1025   1.263       .  A
O1017      H1040   0.965       .  S
O1017     Ni1021   1.922       .  S
O1017     Ni1039   1.905       .  S
O1017     Ni1033   1.909       .  S
C1018      O1035   1.274       .  A
C1018      O1027   1.277       .  A
C1018      C1072   1.472       .  S
O1019     Ni1038   1.938       .  S
O1019      C1025   1.275       .  A
O1020     Ni1038   1.922       .  S
O1020      C1022   1.272       .  A
Ni1021     O1024   1.927       .  S
Ni1021     O1026   1.913       .  S
C1022      O1032   1.273       .  A
O1023     Ni1039   1.905       .  S
O1023      C1029   1.271       .  A
O1024      C1029   1.276       .  A
C1025      C1065   1.477       .  S
O1026      C1028   1.267       .  A
O1027     Ni1038   1.926       .  S
C1028      O1034   1.269       .  A
C1029      C1055   1.467       .  S
H1030      O1031   0.967       .  S
O1031     Ni1039   1.904       .  S
O1031     Ni1033   1.902       .  S
O1031     Ni1038   1.913       .  S
O1032     Ni1033   1.932       .  S
Ni1033     O1037   1.903       .  S
Ni1033     O1035   1.907       .  S
O1034     Ni1039   1.920       .  S
C1036      O1037   1.266       .  A
C1036      C1045   1.468       .  S
C1041      C1042   1.418       .  A
C1041      C1046   1.404       .  A
C1041     Br1048   1.937       .  S
C1042      C1043   1.416       .  A
C1043      C1044   1.409       .  A
C1043     Br1050   1.928       .  S
C1044      C1045   1.406       .  A
C1044     Br1049   1.931       .  S
C1045      C1046   1.405       .  A
C1046     Br1047   1.934       .  S
C1051      C1052   1.425       .  A
C1051      C1056   1.405       .  A
C1051     Br1058   1.939       .  S
C1052      C1053   1.421       .  A
C1053      C1054   1.409       .  A
C1053     Br1060   1.932       .  S
C1054      C1055   1.403       .  A
C1054     Br1059   1.932       .  S
C1055      C1056   1.403       .  A
C1056     Br1057   1.936       .  S
C1061      C1062   1.423       .  A
C1061      C1066   1.408       .  A
C1061     Br1068   1.933       .  S
C1062      C1063   1.424       .  A
C1063      C1064   1.409       .  A
C1063     Br1070   1.937       .  S
C1064      C1065   1.409       .  A
C1064     Br1069   1.938       .  S
C1065      C1066   1.404       .  A
C1066     Br1067   1.933       .  S
C1071      C1072   1.407       .  A
C1071      C1076   1.406       .  A
C1071     Br1078   1.930       .  S
C1072      C1073   1.410       .  A
C1073      C1074   1.405       .  A
C1073     Br1080   1.934       .  S
C1074      C1075   1.412       .  A
C1074     Br1079   1.932       .  S
C1075      C1076   1.411       .  A
C1076     Br1077   1.924       .  S
C1081      C1082   1.407       .  A
C1081      C1246   1.411       .  A
C1081     Br1248   1.931       .  S
C1082      C1083   1.410   1_554  A
C1083      C1084   1.409       .  A
C1083     Br1090   1.939       .  S
C1084      C1085   1.423   1_556  A
C1084     Br1089   1.937       .  S
C1085      C1246   1.422       .  A
C1086      C1241   1.411       .  A
C1086      C1245   1.426       .  A
C1086     Br1087   1.937       .  S
Br1088     C1241   1.935       .  S
C1091      C1092   1.417       .  A
C1091      C1096   1.411       .  A
C1091     Br1098   1.928       .  S
C1092      C1131   1.485       .  S
C1092      C1093   1.418   1_554  A
C1093      C1094   1.403       .  A
C1093     Br1260   1.936       .  S
C1094      C1095   1.405   1_556  A
C1094     Br1099   1.934       .  S
C1095      C1096   1.406       .  A
C1096     Br1097   1.930       .  S
Br1100     C1253   1.934       .  S
C1101      C1102   1.406       .  A
C1101      C1106   1.409       .  A
C1101     Br1108   1.929       .  S
C1102      C1103   1.405       .  A
C1103      C1264   1.404       .  A
C1103     Br1270   1.935       .  S
C1104      C1263   1.405       .  A
C1104      C1265   1.416   1_554  A
C1104     Br1109   1.934       .  S
C1105      C1133   1.481       .  S
C1105      C1264   1.417       .  A
C1105      C1106   1.414       .  A
C1106     Br1107   1.929       .  S
Br1110     C1263   1.935       .  S
C1111      C1112   1.404       .  A
C1111      C1116   1.411       .  A
C1111     Br1118   1.933       .  S
C1112      C1113   1.402       .  A
C1113      C1114   1.403       .  A
C1113     Br1120   1.936       .  S
C1114      C1115   1.424       .  A
C1114     Br1119   1.940       .  S
C1115      C1116   1.424       .  A
C1116     Br1277   1.934       .  S
Br1117     C1276   1.933       .  S
O1121     Ni1129   1.919   1_565  S
O1123      C1133   1.278       .  A
O1124      C1134   1.280       .  A
O1127     Ni1130   1.921       .  S
O1127      C1132   1.280       .  A
O1128      C1131   1.280   1_556  A
C1132      C1275   1.494       .  S
C1134      C1245   1.501       .  S
O1135      C1145   1.281       .  A
O1136     Ni1143   1.925   1_565  S
O1136      C1146   1.283       .  A
O1137      C1147   1.283       .  A
O1138      C1148   1.283       .  A
O1139      C1148   1.279       .  A
O1140      C1147   1.277       .  A
O1141      C1146   1.278       .  A
O1142     Ni1144   1.923       .  S
O1142      C1145   1.282       .  A
C1145      C1235   1.482       .  S
C1146      C1212   1.488       .  S
C1147      C1202   1.490       .  S
C1148      C1222   1.495       .  S
O1149     Ni1155   1.935       .  S
O1149      C1170   1.273       .  A
O1150     Ni1173   1.898       .  S
O1151      H1174   0.966       .  S
O1151     Ni1167   1.909       .  S
C1152      O1169   1.273       .  A
C1152      O1161   1.277       .  A
C1152      C1272   1.470       .  S
O1153     Ni1172   1.935       .  S
O1153      C1159   1.271       .  A
O1154     Ni1172   1.907       .  S
O1154      C1156   1.268       .  A
Ni1155     O1158   1.921       .  S
Ni1155     O1160   1.920       .  S
C1156      O1166   1.270       .  A
C1156      C1188   1.473       .  S
O1157     Ni1173   1.909       .  S
O1157      C1163   1.273       .  A
O1158      C1163   1.276       .  A
C1159      C1262   1.470       .  S
O1160      C1162   1.272       .  A
O1161     Ni1172   1.930       .  S
C1162      O1168   1.273       .  A
C1162      C1182   1.486       .  S
C1163      C1255   1.467       .  S
H1164      O1165   0.970       .  S
O1165     Ni1173   1.910       .  S
O1166     Ni1167   1.928       .  S
Ni1167     O1171   1.896       .  S
Ni1167     O1169   1.910       .  S
O1168     Ni1173   1.937       .  S
C1170      C1242   1.481       .  S
O1175     Ni1181   1.929       .  S
O1175      C1196   1.270       .  A
O1176     Ni1199   1.896       .  S
O1176      C1185   1.264       .  A
O1177      H1200   0.965       .  S
O1177     Ni1181   1.920       .  S
O1177     Ni1199   1.907       .  S
O1177     Ni1193   1.910       .  S
C1178      O1195   1.274       .  A
C1178      O1187   1.278       .  A
C1178      C1232   1.475       .  S
O1179     Ni1198   1.937       .  S
O1179      C1185   1.275       .  A
O1180     Ni1198   1.926       .  S
O1180      C1182   1.272       .  A
Ni1181     O1184   1.925       .  S
Ni1181     O1186   1.912       .  S
C1182      O1192   1.272       .  A
O1183     Ni1199   1.909       .  S
O1183      C1189   1.273       .  A
O1184      C1189   1.276       .  A
C1185      C1225   1.476       .  S
O1186      C1188   1.268       .  A
O1187     Ni1198   1.929       .  S
C1188      O1194   1.269       .  A
C1189      C1215   1.468       .  S
H1190      O1191   0.967       .  S
O1191     Ni1199   1.906       .  S
O1191     Ni1193   1.901       .  S
O1191     Ni1198   1.912       .  S
O1192     Ni1193   1.932       .  S
Ni1193     O1197   1.899       .  S
Ni1193     O1195   1.909       .  S
O1194     Ni1199   1.921       .  S
C1196      O1197   1.265       .  A
C1196      C1205   1.471       .  S
C1201      C1202   1.423       .  A
C1201      C1206   1.405       .  A
C1201     Br1208   1.939       .  S
C1202      C1203   1.419       .  A
C1203      C1204   1.410       .  A
C1203     Br1210   1.930       .  S
C1204      C1205   1.406       .  A
C1204     Br1209   1.933       .  S
C1205      C1206   1.405       .  A
C1206     Br1207   1.937       .  S
C1211      C1212   1.422       .  A
C1211      C1216   1.405       .  A
C1211     Br1218   1.938       .  S
C1212      C1213   1.419       .  A
C1213      C1214   1.410       .  A
C1213     Br1220   1.930       .  S
C1214      C1215   1.404       .  A
C1214     Br1219   1.931       .  S
C1215      C1216   1.404       .  A
C1216     Br1217   1.936       .  S
C1221      C1222   1.422       .  A
C1221      C1226   1.408       .  A
C1221     Br1228   1.930       .  S
C1222      C1223   1.421       .  A
C1223      C1224   1.410       .  A
C1223     Br1230   1.936       .  S
C1224      C1225   1.409       .  A
C1224     Br1229   1.936       .  S
C1225      C1226   1.403       .  A
C1226     Br1227   1.932       .  S
C1231      C1232   1.407       .  A
C1231      C1236   1.408       .  A
C1231     Br1238   1.931       .  S
C1232      C1233   1.411       .  A
C1233      C1234   1.407       .  A
C1233     Br1240   1.933       .  S
C1234      C1235   1.413       .  A
C1234     Br1239   1.932       .  S
C1235      C1236   1.411       .  A
C1236     Br1237   1.920       .  S
C1241      C1242   1.408       .  A
C1242      C1243   1.411       .  A
C1243      C1244   1.408       .  A
C1243     Br1250   1.941       .  S
C1244      C1245   1.425       .  A
C1244     Br1249   1.940       .  S
C1246     Br1247   1.935       .  S
C1251      C1252   1.413       .  A
C1251      C1256   1.408       .  A
C1251     Br1258   1.928       .  S
C1252      C1253   1.415       .  A
C1253      C1254   1.402       .  A
C1254      C1255   1.407       .  A
C1254     Br1259   1.934       .  S
C1255      C1256   1.406       .  A
C1256     Br1257   1.929       .  S
C1261      C1262   1.407       .  A
C1261      C1266   1.409       .  A
C1261     Br1268   1.928       .  S
C1262      C1263   1.406   1_556  A
C1264     Br1269   1.935       .  S
C1265      C1266   1.412       .  A
C1266     Br1267   1.929       .  S
C1271      C1272   1.406       .  A
C1271      C1276   1.413       .  A
C1271     Br1278   1.932       .  S
C1272      C1273   1.402   1_556  A
C1273      C1274   1.403       .  A
C1273     Br1280   1.936       .  S
C1274      C1275   1.422   1_554  A
C1274     Br1279   1.939       .  S
C1275      C1276   1.424       .  A
