geometry optimzed in LAMMPS
_audit_creation_date              2020-11-30 
_audit_creation_method            'lammps2cif' 
_symmetry_space_group_name_H-M    'P1' 
_symmetry_Int_Tables_number       1 
_symmetry_cell_setting            triclinic 
loop_ 
_symmetry_equiv_pos_as_xyz 
  x,y,z 
_cell_length_a                    34.94446347 
_cell_length_b                    47.111009205907635 
_cell_length_c                    31.838145416356234 
_cell_angle_alpha                 90.36844676698779 
_cell_angle_beta                  91.12058100878399 
_cell_angle_gamma                 91.47601411975143 
loop_ 
_atom_site_label 
_atom_site_type_symbol 
_atom_site_fract_x 
_atom_site_fract_y 
_atom_site_fract_z 
_atom_site_charge 
C1          C  0.82222769  0.22352666  0.11341320     0.85300
C2          C  0.78977215  0.23883909  0.08821395    -0.55000
C3          C  0.77025077  0.25849289  0.11154482     0.08200
C4          C  0.78468622  0.26066233  0.15642070     0.19200
C5          C  0.84773061  0.24853004  0.12982175    -0.55700
C6          C  0.82778684  0.26843459  0.15167883     0.08300
C7          C  0.80371660  0.21233380  0.15393790    -0.55200
C8          C  0.78029672  0.23014970  0.17280079     0.08900
H9          H  0.78180259  0.23342064  0.05595587     0.13400
H10         H  0.76978686  0.27624500  0.17620309    -0.00900
H11         H  0.87726185  0.25229862  0.12190283     0.13700
H12         H  0.80337606  0.19008144  0.16292191     0.13500
C13         C  0.82818019  0.23285314  0.40274050     0.85300
C14         C  0.85294536  0.25637383  0.38349624    -0.55000
C15         C  0.83171817  0.27652221  0.36410166     0.08200
C16         C  0.78783984  0.27169583  0.36674067     0.19200
C17         C  0.80180391  0.24994869  0.43291691    -0.55700
C18         C  0.77988820  0.26986001  0.41328503     0.08300
C19         C  0.80145339  0.22216357  0.36658819    -0.55200
C20         C  0.77683636  0.24152010  0.35163993     0.08900
H21         H  0.88392117  0.25784898  0.38630259     0.13400
H22         H  0.77174952  0.28822399  0.34989910    -0.00900
H23         H  0.79860874  0.24617089  0.46612092     0.13700
H24         H  0.79778808  0.19974729  0.35887542     0.13500
O25         O  0.92369093  0.44227812  0.19564522    -0.83000
C26         C  0.78835133  0.46582155  0.28531755     0.96300
O27         O  0.81202471  0.48344378  0.27000976    -0.72100
O28         O  0.88751113  0.48515869  0.29369542    -0.75700
Al29       Al  0.85938425  0.48012096  0.24046508     1.49000
C30         C  0.91736317  0.47289055  0.30667383     0.91600
O31         O  0.89391261  0.40244535  0.29561591    -0.81900
O32         O  0.83233477  0.39981164  0.19371795    -0.75500
Al33       Al  0.90632741  0.42454332  0.24653004     1.90100
O34         O  0.83437312  0.39265606  0.27700555    -0.74600
O35         O  0.79213967  0.44448222  0.20426501    -0.74400
O36         O  0.79728987  0.44006422  0.28796597    -0.80100
O37         O  0.82979957  0.48045965  0.18853074    -0.78300
O38         O  0.86116366  0.44185253  0.24295411    -1.14400
O39         O  0.90431173  0.48531179  0.20611526    -0.73600
C40         C  0.92133180  0.46759863  0.18342055     0.97100
C41         C  0.86416661  0.38660821  0.29726403     0.93500
Al42       Al  0.81794034  0.42114592  0.24109302     1.55600
O43         O  0.93008539  0.45231955  0.28544761    -0.78200
C44         C  0.79854269  0.46654884  0.18350343     0.97700
C45         C  0.86196532  0.38528469  0.19094857     0.92600
O46         O  0.89199295  0.39261982  0.21134400    -0.83500
O47         O  0.92712532  0.04852673  0.03321748    -0.83000
C48         C  0.79387057  0.03191339  0.43440644     0.96300
O49         O  0.82465015  0.01870528  0.43989881    -0.72100
O50         O  0.89751141  0.01526629  0.46112198    -0.75700
Al51       Al  0.85411953  0.02159208  0.99460119     1.49000
C52         C  0.91535526  0.03106835  0.43553647     0.91600
O53         O  0.88797851  0.10879206  0.46160739    -0.81900
O54         O  0.83436959  0.10726655  0.02670029    -0.75500
Al55       Al  0.90211043  0.07607214  0.49412366     1.90100
O56         O  0.82793937  0.09986461  0.44503517    -0.74600
O57         O  0.79396019  0.06173337  0.03797986    -0.74400
O58         O  0.78710853  0.05398422  0.45504182    -0.80100
O59         O  0.80546868  0.01818021  0.02150470    -0.78300
O60         O  0.85793760  0.05949060  0.99380044    -1.14400
O61         O  0.87883231  0.02028152  0.04936418    -0.73600
C62         C  0.91253987  0.02949964  0.05699871     0.97100
C63         C  0.85670348  0.11644774  0.44529338     0.93500
Al64       Al  0.81610149  0.07913684  0.99059786     1.55600
O65         O  0.91631493  0.05762919  0.44155790    -0.78200
C66         C  0.78350031  0.03602259  0.03706230     0.97700
C67         C  0.86343905  0.11375996  0.04870828     0.92600
O68         O  0.89360767  0.09939915  0.04621844    -0.83500
C69         C  0.99090278  0.47979633  0.40003897     0.85300
C70         C  0.96088465  0.46462434  0.37041175    -0.55000
C71         C  0.93857399  0.48273756  0.34671337     0.08200
C72         C  0.94494959  0.01376933  0.35732883     0.19200
C73         C  0.01292585  0.49976595  0.37002057    -0.55700
C74         C  0.98830266  0.01658693  0.34667544     0.08300
C75         C  0.96903150  0.49929213  0.42717068    -0.55200
C76         C  0.94249916  0.01678921  0.40679394     0.08900
H77         H  0.96028475  0.44179598  0.36543629     0.13400
H78         H  0.92649342  0.02844602  0.33942264    -0.00900
H79         H  0.04312828  0.49735074  0.36384691     0.13700
H80         H  0.97170000  0.49869249  0.46112334     0.13500
O81         O  0.00514263  0.43323537  0.04603269    -0.83000
C82         C  0.14067733  0.45008449  0.44826727     0.96300
O83         O  0.11943288  0.46787117  0.46491668    -0.72100
O84         O  0.04794773  0.47048170  0.44025398    -0.75700
Al85       Al  0.07283003  0.46639963  0.99468256     1.49000
C86         C  0.01413682  0.46224650  0.43138603     0.91600
O87         O  0.02529987  0.39331700  0.44295465    -0.81900
O88         O  0.08941192  0.38776793  0.04499420    -0.75500
Al89       Al  0.01822713  0.41498484  0.49258860     1.90100
O90         O  0.08339198  0.37916188  0.45870897    -0.74600
O91         O  0.13603872  0.43018049  0.03173752    -0.74400
O92         O  0.12997338  0.42424978  0.44678767    -0.80100
O93         O  0.10200150  0.46728789  0.04632265    -0.78300
O94         O  0.06580442  0.42890837  0.99494751    -1.14400
O95         O  0.02901794  0.47452566  0.02767714    -0.73600
C96         C  0.00914039  0.45957591  0.05258565     0.97100
C97         C  0.05183193  0.37588963  0.43914297     0.93500
Al98       Al  0.10599979  0.40663607  0.99636676     1.55600
O99         O  0.99746982  0.44434719  0.45537644    -0.78200
C100        C  0.13224281  0.45326454  0.05094901     0.97700
C101        C  0.05891116  0.37317298  0.04651421     0.92600
O102        O  0.02894926  0.38120050  0.02777099    -0.83500
O103        O  0.98912258  0.03800438  0.20727833    -0.83000
C104        C  0.12470221  0.03199497  0.29982864     0.96300
O105        O  0.09319239  0.01801755  0.29789701    -0.72100
O106        O  0.01866373  0.00995317  0.28053986    -0.75700
Al107      Al  0.06383562  0.01553943  0.24669563     1.49000
C108        C  0.00301216  0.02719904  0.30523765     0.91600
O109        O  0.02955738  0.10383412  0.26916764    -0.81900
O110        O  0.08139277  0.09963394  0.19741610    -0.75500
Al111      Al  0.01372685  0.06882250  0.24072493     1.90100
O112        O  0.09076423  0.09842968  0.28149179    -0.74600
O113        O  0.12094607  0.05309898  0.19122453    -0.74400
O114        O  0.13102801  0.05313351  0.27651848    -0.80100
O115        O  0.11110705  0.01128770  0.21758328    -0.78300
O116        O  0.06016016  0.05318207  0.24180274    -1.14400
O117        O  0.03738278  0.01056805  0.19446994    -0.73600
C118        C  0.00581375  0.02084535  0.18300099     0.97100
C119        C  0.06187844  0.11370845  0.28170614     0.93500
Al120      Al  0.10237793  0.07422401  0.23698421     1.55600
O121        O  0.00099520  0.05298251  0.29495698    -0.78200
C122        C  0.13216577  0.02832370  0.19762306     0.97700
C123        C  0.04904066  0.10344133  0.18059982     0.92600
O124        O  0.02058977  0.08757276  0.18866305    -0.83500
C125        C  0.09819927  0.22644546  0.34175898     0.85300
C126        C  0.07108792  0.24867250  0.35731637    -0.55000
C127        C  0.08793590  0.26790503  0.38394559     0.08200
C128        C  0.13093401  0.26282072  0.39351644     0.19200
C129        C  0.13161511  0.24515062  0.32251588    -0.55700
C130        C  0.14908883  0.26425553  0.35070226     0.08300
C131        C  0.11625489  0.21316112  0.38075681    -0.55200
C132        C  0.13668255  0.23130778  0.40587056     0.08900
H133        H  0.04257757  0.25141281  0.34399461     0.13400
H134        H  0.14197286  0.27840284  0.41701383    -0.00900
H135        H  0.14095246  0.24364804  0.29035938     0.13700
H136        H  0.12032697  0.19034902  0.38255626     0.13500
C137        C  0.09218667  0.21305648  0.12788912     0.85300
C138        C  0.11334946  0.22767578  0.16676259    -0.55000
C139        C  0.13402867  0.25210853  0.15679320     0.08200
C140        C  0.13199546  0.25848452  0.11001274     0.19200
C141        C  0.06829875  0.23634365  0.10791760    -0.55700
C142        C  0.08936303  0.25996197  0.09835982     0.08300
C143        C  0.12550140  0.20850475  0.09745310    -0.55200
C144        C  0.14836453  0.23168864  0.09141039     0.08900
H145        H  0.11545468  0.21787959  0.19741831     0.13400
H146        H  0.14802120  0.27768526  0.09980421    -0.00900
H147        H  0.03761066  0.23442594  0.10213968     0.13700
H148        H  0.13520295  0.18780315  0.08817572     0.13500
C149        C  0.98635317  0.47520690  0.08564810     0.85300
C150        C  0.01064575  0.49518806  0.11468156    -0.55000
C151        C  0.98862794  0.01149773  0.14130334     0.08200
C152        C  0.94493962  0.00834262  0.13254094     0.19200
C153        C  0.95980349  0.45915466  0.11684094    -0.55700
C154        C  0.93966462  0.47698196  0.14294343     0.08300
C155        C  0.96043249  0.49409187  0.06123910    -0.55200
C156        C  0.93842487  0.01167271  0.08351320     0.08900
H157        H  0.04145689  0.49315288  0.11800161     0.13400
H158        H  0.92773031  0.02283810  0.15175728    -0.00900
H159        H  0.96004274  0.43629148  0.12075318     0.13700
H160        H  0.95783994  0.49292394  0.02732906     0.13500
O161        O  0.42600650  0.30910276  0.28377146    -0.83000
C162        C  0.28542137  0.29460921  0.19472724     0.96300
O163        O  0.31506070  0.28032685  0.20069569    -0.72100
O164        O  0.38962174  0.27282743  0.21541880    -0.75700
Al165      Al  0.34719682  0.28618920  0.24953633     1.49000
C166        C  0.41288166  0.28520589  0.19040574     0.91600
O167        O  0.39946345  0.36484004  0.20003660    -0.81900
O168        O  0.34636418  0.37856283  0.25626239    -0.75500
Al169      Al  0.40685479  0.33530304  0.24086043     1.90100
O170        O  0.34104962  0.35637896  0.17651947    -0.74600
O171        O  0.29737696  0.33994176  0.28167575    -0.74400
O172        O  0.28633780  0.32070829  0.20338623    -0.80100
O173        O  0.30315832  0.29344130  0.28242038    -0.76300
O174        O  0.35814915  0.32259088  0.24007295    -1.14400
O175        O  0.37465734  0.28592208  0.30233113    -0.73600
C176        C  0.40893378  0.29310837  0.30987649     0.97100
C177        C  0.37241351  0.37018775  0.17447391     0.93500
Al178      Al  0.32114425  0.34685082  0.22983758     1.55600
O179        O  0.41984362  0.31149181  0.19424162    -0.78200
C180        C  0.28642343  0.31568463  0.29368616     0.97700
C181        C  0.37362364  0.38033620  0.28275075     0.92600
O182        O  0.39802891  0.36108245  0.28588319    -0.83500
O183        O  0.43350545  0.20938464  0.46063129    -0.83000
C184        C  0.30372904  0.21607959  0.06128824     0.96300
O185        O  0.33368737  0.23081228  0.05587008    -0.72100
O186        O  0.40494107  0.24071706  0.03706571    -0.75700
Al187      Al  0.35898573  0.23018180  0.50236539     1.49000
C188        C  0.42391087  0.22447163  0.06097785     0.91600
O189        O  0.40632120  0.14697864  0.03629584    -0.81900
O190        O  0.34972343  0.13942612  0.47318343    -0.75500
Al191      Al  0.41422611  0.17958525  0.49896565     1.90100
O192        O  0.34988424  0.15648190  0.05969944    -0.74600
O193        O  0.30489632  0.18186754  0.45430698    -0.74400
O194        O  0.29849750  0.19273552  0.04251189    -0.80100
O195        O  0.31087389  0.22736115  0.47037163    -0.78300
O196        O  0.36692653  0.19303955  0.50144166    -1.14400
O197        O  0.38310871  0.23526244  0.45038061    -0.73600
C198        C  0.41492892  0.22689338  0.43822345     0.97100
C199        C  0.37928614  0.14172081  0.06141323     0.93500
Al200      Al  0.32772478  0.16907512  0.50467428     1.55600
O201        O  0.43011870  0.19948636  0.04935119    -0.78200
C202        C  0.29257048  0.20677740  0.45259682     0.97700
C203        C  0.37830321  0.13811704  0.44977693     0.92600
O204        O  0.40361635  0.15763318  0.44977314    -0.83500
C205        C  0.33313141  0.03120295  0.38578219     0.85300
C206        C  0.30983191  0.01772272  0.42231024    -0.55000
C207        C  0.29035101  0.49427837  0.41238951     0.08200
C208        C  0.29331584  0.48562824  0.36642128     0.19200
C209        C  0.35768620  0.00754351  0.36956492    -0.55700
C210        C  0.33627941  0.48413899  0.35775726     0.08300
C211        C  0.30201793  0.03536821  0.35121903    -0.55200
C212        C  0.27984043  0.01178379  0.34196037     0.08900
H213        H  0.30838148  0.02755356  0.45306498     0.13400
H214        H  0.27776103  0.46558691  0.35804067    -0.00900
H215        H  0.38863885  0.00931740  0.36738278     0.13700
H216        H  0.29256697  0.05610787  0.34162283     0.13500
C217        C  0.33328735  0.03179531  0.12449979     0.85300
C218        C  0.35979636  0.00632688  0.12331565    -0.55000
C219        C  0.34084883  0.48156545  0.13113776     0.08200
C220        C  0.29802301  0.48429533  0.14117359     0.19200
C221        C  0.29992592  0.02351980  0.09350370    -0.55700
C222        C  0.27979079  0.49909579  0.10326923     0.08300
C223        C  0.31588340  0.03000216  0.16877305    -0.55200
C224        C  0.29316599  0.00638195  0.17617352     0.08900
H225        H  0.38975171  0.00725123  0.11551878     0.13400
H226        H  0.28572517  0.46326552  0.14915638    -0.00900
H227        H  0.29130092  0.03698444  0.06767070     0.13700
H228        H  0.31776555  0.04822235  0.18922058     0.13500
C229        C  0.43152859  0.27644639  0.34333884     0.85300
C230        C  0.40827631  0.25661024  0.37280721    -0.55000
C231        C  0.43025846  0.23929637  0.39820000     0.08200
C232        C  0.47338251  0.24202050  0.38884799     0.19200
C233        C  0.46016584  0.29195875  0.37422270    -0.55700
C234        C  0.48111710  0.27401789  0.39997953     0.08300
C235        C  0.45516919  0.25691653  0.31825750    -0.55200
C236        C  0.47650470  0.23864726  0.33956422     0.08900
H237        H  0.37764033  0.25858061  0.37659459     0.13400
H238        H  0.49134362  0.22728276  0.40725032    -0.00900
H239        H  0.46048623  0.31484069  0.37852414     0.13700
H240        H  0.45460659  0.25726406  0.28431673     0.13500
C241        C  0.58576842  0.02232832  0.36092216     0.85300
C242        C  0.60980423  0.01494855  0.32129571    -0.55000
C243        C  0.63379229  0.49214753  0.32433249     0.08200
C244        C  0.63304089  0.47941633  0.36841618     0.19200
C245        C  0.56242850  0.99556625  0.37036106    -0.55700
C246        C  0.59066702  0.47504885  0.37944583     0.08300
C247        C  0.61659978  0.02435415  0.39610540    -0.55200
C248        C  0.64018333  0.00167324  0.39863607     0.08900
H249        H  0.61251063  0.02903098  0.29460443     0.13400
H250        H  0.64924495  0.45967604  0.37189432    -0.00900
H251        H  0.53944234  0.49886590  0.38437514     0.13700
H252        H  0.62487906  0.04448153  0.41074030     0.13500
O253        O  0.49022543  0.19389774  0.30650773    -0.83000
C254        C  0.63597528  0.19245435  0.23544609     0.96300
O255        O  0.61193253  0.21151830  0.22878539    -0.72100
O256        O  0.54310207  0.21886008  0.20164321    -0.75700
Al257      Al  0.56642791  0.21995120  0.25686817     1.49000
C258        C  0.50841694  0.21409837  0.19383155     0.91600
O259        O  0.52617660  0.14666901  0.21588780    -0.81900
O260        O  0.55501277  0.14845263  0.33640317    -0.75500
Al261      Al  0.50759369  0.17076401  0.26003181     1.90100
O262        O  0.57571170  0.13212782  0.25509133    -0.74600
O263        O  0.60830847  0.18883032  0.33428705    -0.74400
O264        O  0.62890475  0.17185877  0.25898228    -0.80100
O265        O  0.59471368  0.22926530  0.30552603    -0.78300
O266        O  0.55517794  0.18433946  0.27006400    -1.14400
O267        O  0.52262294  0.23278775  0.28710383    -0.73600
C268        C  0.49934243  0.22015196  0.31187454     0.97100
C269        C  0.55402040  0.12988868  0.22245637     0.93500
Al270      Al  0.58886661  0.16201935  0.29432260     1.55600
O271        O  0.49023480  0.19819417  0.21868106    -0.78200
C272        C  0.61579301  0.21486637  0.32869942     0.97700
C273        C  0.52851276  0.13142056  0.32538755     0.92600
O274        O  0.50770932  0.13800248  0.29486565    -0.83500
C275        C  0.59119455  0.02369222  0.14065302     0.85300
C276        C  0.56301228  0.99874701  0.13480666    -0.55000
C277        C  0.58024316  0.47924399  0.11366507     0.08200
C278        C  0.62251062  0.48374260  0.10093395     0.19200
C279        C  0.62561281  0.01016157  0.16438461    -0.55700
C280        C  0.64442582  0.49209993  0.14161701     0.08300
C281        C  0.60673172  0.03033114  0.09685471    -0.55200
C282        C  0.62535017  0.00887073  0.07714822     0.08900
H283        H  0.53735151  0.49989808  0.14773051     0.13400
H284        H  0.63197422  0.46469613  0.08442392    -0.00900
H285        H  0.63807908  0.01905399  0.19324052     0.13700
H286        H  0.60874155  0.05222512  0.08782392     0.13500
O287        O  0.49342997  0.30897864  0.45438647    -0.83000
C288        C  0.62566578  0.30246540  0.05882216     0.96300
O289        O  0.60825646  0.28243469  0.03908510    -0.72100
O290        O  0.53570835  0.27221845  0.05300201    -0.75700
Al291      Al  0.56415547  0.27821946  0.50257854     1.49000
C292        C  0.50456190  0.28142958  0.06627157     0.91600
O293        O  0.51385323  0.35161261  0.05598688    -0.81900
O294        O  0.57780550  0.35631230  0.45494373    -0.75500
Al295      Al  0.50609458  0.32895154  0.00615114     1.90100
O296        O  0.56897613  0.37027274  0.03788441    -0.74600
O297        O  0.62761633  0.31870473  0.47318678    -0.74400
O298        O  0.61431110  0.32769699  0.05690707    -0.80100
O299        O  0.59514927  0.28056236  0.45333242    -0.78300
O300        O  0.55547371  0.31537726  0.50497534    -1.14400
O301        O  0.52097138  0.26837713  0.46360230    -0.73600
C302        C  0.49986671  0.28425226  0.44127422     0.97100
C303        C  0.53897586  0.37123344  0.05893843     0.93500
Al304      Al  0.59465978  0.34021899  0.50534365     1.55600
O305        O  0.48666898  0.29947845  0.04438293    -0.78200
C306        C  0.62540932  0.29587769  0.45277658     0.97700
C307        C  0.54700148  0.36928027  0.45175865     0.92600
O308        O  0.51779823  0.36134676  0.47208378    -0.83500
C309        C  0.48702040  0.23198667  0.16109125     0.85300
C310        C  0.46078414  0.21638975  0.12842562    -0.55000
C311        C  0.44016987  0.23429357  0.10261216     0.08200
C312        C  0.44536406  0.26599560  0.11492396     0.19200
C313        C  0.51065468  0.25303255  0.13360700    -0.55700
C314        C  0.48889473  0.26992725  0.10729153     0.08300
C315        C  0.46076571  0.25010667  0.18577165    -0.55200
C316        C  0.43863277  0.26769118  0.16393682     0.08900
H317        H  0.46179472  0.19361906  0.12326068     0.13400
H318        H  0.42735063  0.28043355  0.09604119    -0.00900
H319        H  0.54145121  0.25154911  0.13075681     0.13700
H320        H  0.45953828  0.24884178  0.21955355     0.13500
C321        C  0.53374518  0.39702481  0.08423997    -0.07300
C322        C  0.55678448  0.40081973  0.12048104    -0.18500
C323        C  0.56797758  0.42811293  0.13440983     0.09900
C324        C  0.55923082  0.45168876  0.10914410    -0.07300
C325        C  0.53219722  0.44823766  0.07638802    -0.18500
C326        C  0.51811769  0.42115027  0.06488676     0.09900
S327        S  0.59302824  0.43147700  0.18432967    -0.33500
S328        S  0.48349292  0.41531867  0.52456179    -0.33500
H329        H  0.46817256  0.38939658  0.53910796     0.27900
H330        H  0.58383169  0.45985638  0.19203453     0.27900
H331        H  0.56789422  0.38246915  0.13653341     0.18500
H332        H  0.52336217  0.46652760  0.05850851     0.18500
C333        C  0.57777100  0.05141924  0.16063418    -0.07300
C334        C  0.60728643  0.07071441  0.17314108    -0.18500
C335        C  0.59994669  0.09761614  0.18836748     0.09900
C336        C  0.56192749  0.10593715  0.19392649    -0.07300
C337        C  0.53213128  0.08831203  0.17801867    -0.18500
C338        C  0.53956860  0.06170718  0.15993889     0.09900
S339        S  0.64071942  0.12107702  0.19757012    -0.33500
S340        S  0.49927408  0.04418554  0.13384848    -0.33500
H341        H  0.51962292  0.03827904  0.09724838     0.27900
H342        H  0.62143574  0.14505045  0.18297917     0.27900
H343        H  0.63696402  0.06534954  0.16917540     0.18500
H344        H  0.50286281  0.09519799  0.17992452     0.18500
C345        C  0.56077022  0.04862491  0.35750490    -0.07300
C346        C  0.53945426  0.05283228  0.32035990    -0.18500
C347        C  0.52090270  0.07842822  0.31322754     0.09900
C348        C  0.52815902  0.10175239  0.34091276    -0.07300
C349        C  0.54423482  0.09622394  0.38043161    -0.18500
C350        C  0.55678507  0.06906880  0.39030104     0.09900
S351        S  0.48822923  0.07968266  0.26898042    -0.33500
S352        S  0.56032330  0.06102714  0.44546990    -0.33500
H353        H  0.54926868  0.03232465  0.44023425     0.27900
H354        H  0.46163171  0.09635282  0.28996730     0.27900
H355        H  0.53721977  0.03612016  0.29683149     0.18500
H356        H  0.54632428  0.11298427  0.40390575     0.18500
C357        C  0.54916393  0.39717633  0.43192728    -0.07300
C358        C  0.56176767  0.41968784  0.45809713    -0.18500
C359        C  0.57463445  0.44543478  0.44149883     0.09900
C360        C  0.57516024  0.44869682  0.39766247    -0.07300
C361        C  0.56152622  0.42656944  0.37119106    -0.18500
C362        C  0.54870543  0.40058658  0.38808861     0.09900
S363        S  0.59137825  0.47365341  0.47651457    -0.33500
S364        S  0.53314375  0.37158385  0.35409353    -0.33500
H365        H  0.53887675  0.38590508  0.31599678     0.27900
H366        H  0.59502693  0.45679455  0.51258085     0.27900
H367        H  0.56354599  0.41650745  0.49167432     0.18500
H368        H  0.56179330  0.42949132  0.33750234     0.18500
C369        C  0.38259207  0.11185836  0.42609402    -0.07300
C370        C  0.39047126  0.08754594  0.44952301    -0.18500
C371        C  0.37847553  0.06053279  0.43515342     0.09900
C372        C  0.35656649  0.05817570  0.39731077    -0.07300
C373        C  0.35584006  0.08212038  0.37065863    -0.18500
C374        C  0.36787755  0.10897209  0.38505565     0.09900
S375        S  0.39000335  0.02981513  0.46632224    -0.33500
S376        S  0.35970518  0.13908838  0.35167059    -0.33500
H377        H  0.38838041  0.15678342  0.37023163     0.27900
H378        H  0.40997803  0.04442883  0.49897416     0.27900
H379        H  0.40303979  0.09005194  0.48070957     0.18500
H380        H  0.34467844  0.08054169  0.33884829     0.18500
C381        C  0.37714673  0.11605998  0.08856019    -0.07300
C382        C  0.34354047  0.11281528  0.11161044    -0.18500
C383        C  0.32860703  0.08621355  0.12209101     0.09900
C384        C  0.35031123  0.06153894  0.11502360    -0.07300
C385        C  0.38703253  0.06544393  0.09742198    -0.18500
C386        C  0.40049259  0.09227101  0.08410015     0.09900
S387        S  0.27965993  0.08499312  0.13984896    -0.33500
S388        S  0.44708077  0.09451372  0.06096275    -0.33500
H389        H  0.45649062  0.12132083  0.07860814     0.27900
H390        H  0.27645661  0.11386639  0.15038446     0.27900
H391        H  0.32607849  0.13107055  0.11700499     0.18500
H392        H  0.40508230  0.04771807  0.09160799     0.18500
C393        C  0.35340473  0.45808298  0.34190160    -0.07300
C394        C  0.34750517  0.43286533  0.36428592    -0.18500
C395        C  0.35835849  0.40680024  0.34783451     0.09900
C396        C  0.37606754  0.40604626  0.30850200    -0.07300
C397        C  0.38441586  0.43151095  0.28755073    -0.18500
C398        C  0.37260743  0.45746798  0.30346515     0.09900
S399        S  0.34463099  0.37506930  0.37581495    -0.33500
S400        S  0.37853836  0.48848007  0.27115601    -0.33500
H401        H  0.34986657  0.00002984  0.28062591     0.27900
H402        H  0.37416024  0.35829624  0.36081899     0.27900
H403        H  0.33296054  0.43335212  0.39397375     0.18500
H404        H  0.39668264  0.43085738  0.25658306     0.18500
C405        C  0.35925423  0.45339882  0.13003418    -0.07300
C406        C  0.33991323  0.43110277  0.10846002    -0.18500
C407        C  0.34704106  0.40267252  0.11787990     0.09900
C408        C  0.37468030  0.39655083  0.14918632    -0.07300
C409        C  0.39924105  0.41873522  0.16407934    -0.18500
C410        C  0.39182393  0.44718191  0.15483103     0.09900
S411        S  0.31966930  0.37466053  0.09119377    -0.33500
S412        S  0.42228598  0.47497549  0.17760547    -0.33500
H413        H  0.45032409  0.45726860  0.19470086     0.27900
H414        H  0.29833915  0.39223388  0.06448598     0.27900
H415        H  0.31789838  0.43607382  0.08571755     0.18500
H416        H  0.42186008  0.41412946  0.18651967     0.18500
C417        C  0.16805140  0.26470802  0.17999289    -0.07300
C418        C  0.19518525  0.24666073  0.19781506    -0.18500
C419        C  0.23437276  0.25478685  0.20083937     0.09900
C420        C  0.24701600  0.28136751  0.18442579    -0.07300
C421        C  0.21918203  0.29954840  0.16829361    -0.18500
C422        C  0.18020730  0.29255994  0.16966408     0.09900
S423        S  0.26722052  0.23098646  0.22602607    -0.33500
S424        S  0.14687949  0.32013644  0.15721339    -0.33500
H425        H  0.11507971  0.30622179  0.17506594     0.27900
H426        H  0.23990451  0.21026588  0.23798502     0.27900
H427        H  0.18600970  0.22563977  0.20733759     0.18500
H428        H  0.22755586  0.32061871  0.15782210     0.18500
C429        C  0.27101965  0.22689410  0.08372289    -0.07300
C430        C  0.25133752  0.20726644  0.10842757    -0.18500
C431        C  0.21172053  0.20815485  0.11253390     0.09900
C432        C  0.19093234  0.22920333  0.09018895    -0.07300
C433        C  0.21165019  0.25081850  0.06981428    -0.18500
C434        C  0.25155894  0.25027847  0.06729929     0.09900
S435        S  0.18989687  0.18173221  0.14623408    -0.33500
S436        S  0.27353011  0.27575325  0.53110289    -0.33500
H437        H  0.24190964  0.29302164  0.52359213     0.27900
H438        H  0.22351182  0.17379631  0.16768835     0.27900
H439        H  0.26673238  0.18949607  0.12121617     0.18500
H440        H  0.19640464  0.26764327  0.05437761     0.18500
C441        C  0.25282614  0.21074343  0.43836165    -0.07300
C442        C  0.22408453  0.20816683  0.46863275    -0.18500
C443        C  0.18553218  0.21255914  0.45837537     0.09900
C444        C  0.17556215  0.22090916  0.41751917    -0.07300
C445        C  0.20361158  0.21920150  0.38610212    -0.18500
C446        C  0.24221657  0.21515501  0.39624296     0.09900
S447        S  0.15043930  0.20472856  0.49744802    -0.33500
S448        S  0.27622798  0.21666040  0.35433792    -0.33500
H449        H  0.30832229  0.22519673  0.37899162     0.27900
H450        H  0.11719797  0.20625821  0.47225042     0.27900
H451        H  0.23158232  0.20235999  0.50049209     0.18500
H452        H  0.19601952  0.22234413  0.35347506     0.18500
C453        C  0.18359833  0.28276480  0.34155935    -0.07300
C454        C  0.18487900  0.29575747  0.30208620    -0.18500
C455        C  0.21583683  0.31320375  0.29134516     0.09900
C456        C  0.25002042  0.31216149  0.31507451    -0.07300
C457        C  0.24943251  0.29999340  0.35465671    -0.18500
C458        C  0.21543766  0.28799974  0.37012784     0.09900
S459        S  0.20942443  0.33785052  0.24918564    -0.33500
S460        S  0.21498522  0.28156963  0.42603711    -0.33500
H461        H  0.25471983  0.28351493  0.43385407     0.27900
H462        H  0.23207459  0.35962346  0.26817125     0.27900
H463        H  0.16091587  0.29359548  0.28018579     0.18500
H464        H  0.27557588  0.30042254  0.37350717     0.18500
C465        C  0.23786605  0.01488884  0.33349389    -0.07300
C466        C  0.21883421  0.03708950  0.35372270    -0.18500
C467        C  0.17948676  0.04042177  0.34896185     0.09900
C468        C  0.15804400  0.02159288  0.32293297    -0.07300
C469        C  0.17605868  0.99815886  0.30524336    -0.18500
C470        C  0.21566682  0.99472585  0.30989869     0.09900
S471        S  0.15823833  0.07017996  0.37475942    -0.33500
S472        S  0.23125493  0.46313134  0.28902612    -0.33500
H473        H  0.26671565  0.47607625  0.27950165     0.27900
H474        H  0.12042892  0.05915130  0.37262927     0.27900
H475        H  0.23455883  0.05215367  0.37366614     0.18500
H476        H  0.15993374  0.98410502  0.28394737     0.18500
C477        C  0.17311184  0.02151686  0.19215788    -0.07300
C478        C  0.20071059  0.04175074  0.20659573    -0.18500
C479        C  0.23959600  0.03534182  0.21065449     0.09900
C480        C  0.25299490  0.00952430  0.19380972    -0.07300
C481        C  0.22460992  0.98822060  0.18454648    -0.18500
C482        C  0.18534565  0.99380004  0.18398683     0.09900
S483        S  0.26803508  0.05830859  0.24510736    -0.33500
S484        S  0.15363681  0.46339991  0.17683364    -0.33500
H485        H  0.12669061  0.47919874  0.15411869     0.27900
H486        H  0.29402857  0.03718244  0.25634087     0.27900
H487        H  0.19151019  0.06197066  0.21863637     0.18500
H488        H  0.23380288  0.46610257  0.18079760     0.18500
C489        C  0.04423454  0.13013851  0.15808091    -0.07300
C490        C  0.03424766  0.15369441  0.18246188    -0.18500
C491        C  0.04636966  0.18136506  0.17177720     0.09900
C492        C  0.06913760  0.18536783  0.13593259    -0.07300
C493        C  0.07127424  0.16220153  0.10741472    -0.18500
C494        C  0.06079021  0.13460799  0.11898143     0.09900
S495        S  0.03327127  0.21088807  0.20456237    -0.33500
S496        S  0.07222247  0.10571487  0.08436289    -0.33500
H497        H  0.04683950  0.08560682  0.10190862     0.27900
H498        H  0.01421162  0.19489237  0.23531328     0.27900
H499        H  0.02020107  0.15009416  0.21203340     0.18500
H500        H  0.08275991  0.16497802  0.07641770     0.18500
C501        C  0.07971377  0.20191799  0.31625379    -0.07300
C502        C  0.10239791  0.18925677  0.28596369    -0.18500
C503        C  0.09717303  0.16086214  0.27425802     0.09900
C504        C  0.06720868  0.14425943  0.29194734    -0.07300
C505        C  0.04151980  0.15740715  0.31827196    -0.18500
C506        C  0.04784766  0.18562377  0.33178128     0.09900
S507        S  0.13067756  0.14663304  0.23763357    -0.33500
S508        S  0.01689033  0.19881692  0.37206911    -0.33500
H509        H  0.99666946  0.17329418  0.38014287     0.27900
H510        H  0.14756236  0.17247816  0.22491448     0.27900
H511        H  0.12715364  0.20044327  0.27430178     0.18500
H512        H  0.01782393  0.14488240  0.33035365     0.18500
C513        C  0.24141620  0.48907803  0.08666984    -0.07300
C514        C  0.23453645  0.45962691  0.08617563    -0.18500
C515        C  0.19794651  0.44780143  0.08165937     0.09900
C516        C  0.16692168  0.46537717  0.07196657    -0.07300
C517        C  0.17320930  0.49487992  0.07170792    -0.18500
C518        C  0.20972901  0.50701522  0.08024092     0.09900
S519        S  0.19290479  0.41000773  0.09017318    -0.33500
S520        S  0.21518529  0.04424169  0.08474031    -0.33500
H521        H  0.17615291  0.05007183  0.07916803     0.27900
H522        H  0.15534002  0.41112533  0.10517163     0.27900
H523        H  0.25751806  0.44530036  0.09182966     0.18500
H524        H  0.14970172  0.50845146  0.06353018     0.18500
C525        C  0.25683919  0.48248428  0.43544624    -0.07300
C526        C  0.24867668  0.45318727  0.43040576    -0.18500
C527        C  0.21115810  0.44194480  0.43135244     0.09900
C528        C  0.18053307  0.46016547  0.43921756    -0.07300
C529        C  0.18953878  0.48903455  0.44814270    -0.18500
C530        C  0.22701120  0.50009952  0.44785228     0.09900
S531        S  0.20472995  0.40452283  0.42071436    -0.33500
S532        S  0.23339327  0.03639260  0.46137552    -0.33500
H533        H  0.19723076  0.04148301  0.47810941     0.27900
H534        H  0.17481713  0.40827585  0.39119755     0.27900
H535        H  0.27139016  0.43922765  0.42176094     0.18500
H536        H  0.16702261  0.50337227  0.45595787     0.18500
C537        C  0.04606850  0.34945515  0.41545416    -0.07300
C538        C  0.06699711  0.34631721  0.37901971    -0.18500
C539        C  0.07714490  0.31944657  0.36529571     0.09900
C540        C  0.07002840  0.29556374  0.39113963    -0.07300
C541        C  0.04578512  0.29837111  0.42519557    -0.18500
C542        C  0.03220090  0.32498140  0.43628105     0.09900
S543        S  0.09807548  0.31759590  0.31443998    -0.33500
S544        S  0.99889908  0.32660957  0.47854709    -0.33500
H545        H  0.98110441  0.35117750  0.46392878     0.27900
H546        H  0.08078362  0.29136917  0.30316518     0.27900
H547        H  0.07681885  0.36497788  0.36217586     0.18500
H548        H  0.03795049  0.27990760  0.44358394     0.18500
C549        C  0.06158987  0.34360327  0.06054403    -0.07300
C550        C  0.08246679  0.32594294  0.03434059    -0.18500
C551        C  0.08794494  0.29760888  0.04384189     0.09900
C552        C  0.07366632  0.28644544  0.08141112    -0.07300
C553        C  0.05159227  0.30367413  0.10732087    -0.18500
C554        C  0.04515357  0.33224255  0.09716316     0.09900
S555        S  0.11443020  0.27687481  0.00725578    -0.33500
S556        S  0.01852155  0.35309205  0.13370305    -0.33500
H557        H  0.02049870  0.37919095  0.11278615     0.27900
H558        H  0.09438340  0.25134235  0.01564788     0.27900
H559        H  0.09471986  0.33427917  0.00583675     0.18500
H560        H  0.04133391  0.29534557  0.13680641     0.18500
C561        C  0.76130967  0.02024371  0.41011811    -0.07300
C562        C  0.74705493  0.99341968  0.42211215    -0.18500
C563        C  0.70761515  0.98703721  0.42065793     0.09900
C564        C  0.68207268  0.00747166  0.40507508    -0.07300
C565        C  0.69742661  0.03314143  0.38931799    -0.18500
C566        C  0.73623052  0.03963424  0.39153602     0.09900
S567        S  0.70041750  0.45519701  0.43755915    -0.33500
S568        S  0.75148498  0.07468002  0.37468027    -0.33500
H569        H  0.79038718  0.06830472  0.37087153     0.27900
H570        H  0.66893945  0.46718317  0.45691510     0.27900
H571        H  0.76598816  0.97880100  0.43776233     0.18500
H572        H  0.67925360  0.04854549  0.37443138     0.18500
C573        C  0.66290724  0.01526865  0.05472487    -0.07300
C574        C  0.68994853  0.99357940  0.05162308    -0.18500
C575        C  0.72928658  0.99946602  0.04815143     0.09900
C576        C  0.74293487  0.02793510  0.04631530    -0.07300
C577        C  0.71561740  0.04930041  0.04333305    -0.18500
C578        C  0.67608067  0.04313218  0.04448293     0.09900
S579        S  0.76015308  0.96939068  0.04668985    -0.33500
S580        S  0.64405135  0.06969271  0.02463166    -0.33500
H581        H  0.67190847  0.09018976  0.01335529     0.27900
H582        H  0.78989560  0.98140315  0.57587435     0.27900
H583        H  0.68122315  0.47324077  0.04944894     0.18500
H584        H  0.72515071  0.07086912  0.03708122     0.18500
C585        C  0.74757976  0.47404061  0.29190413    -0.07300
C586        C  0.71939535  0.45211809  0.29303534    -0.18500
C587        C  0.68031098  0.45782210  0.29511539     0.09900
C588        C  0.66825129  0.48606298  0.29881273    -0.07300
C589        C  0.69544931  0.50800183  0.29237812    -0.18500
C590        C  0.73469943  0.50240166  0.28912121     0.09900
S591        S  0.64678172  0.42805490  0.29441874    -0.33500
S592        S  0.76804522  0.02994433  0.29143910    -0.33500
H593        H  0.79272634  0.52399494  0.31405206     0.27900
H594        H  0.61452579  0.44397473  0.28374760     0.27900
H595        H  0.72762994  0.43013330  0.29151672     0.18500
H596        H  0.68784414  0.02835985  0.30120415     0.18500
C597        C  0.76554945  0.47606830  0.15796365    -0.07300
C598        C  0.74000705  0.45431581  0.14425138    -0.18500
C599        C  0.70077355  0.45852175  0.13971271     0.09900
C600        C  0.68601191  0.48569187  0.14790306    -0.07300
C601        C  0.71241532  0.50830502  0.15685639    -0.18500
C602        C  0.75187751  0.50383329  0.16116614     0.09900
S603        S  0.67093609  0.42773036  0.12715858    -0.33500
S604        S  0.78316479  0.53408020  0.17157716    -0.33500
H605        H  0.81283855  0.52399756  0.14669727     0.27900
H606        H  0.69948230  0.41180330  0.10812858     0.27900
H607        H  0.75047789  0.43295798  0.14118862     0.18500
H608        H  0.70246608  0.52979143  0.15981504     0.18500
C609        C  0.73491167  0.23384242  0.34702280    -0.07300
C610        C  0.71289010  0.25134269  0.32129845    -0.18500
C611        C  0.67287869  0.24854695  0.31880098     0.09900
C612        C  0.65384552  0.22685387  0.34204696    -0.07300
C613        C  0.67540741  0.21072018  0.36990890    -0.18500
C614        C  0.71526352  0.21357624  0.37276633     0.09900
S615        S  0.64761294  0.27250683  0.28442560    -0.33500
S616        S  0.73859042  0.18956744  0.40851874    -0.33500
H617        H  0.70698454  0.18356091  0.43400718     0.27900
H618        H  0.67954442  0.28792809  0.26963162     0.27900
H619        H  0.72736799  0.26732668  0.30272195     0.18500
H620        H  0.66108142  0.19411489  0.38750636     0.18500
C621        C  0.74147706  0.27829263  0.42790890    -0.07300
C622        C  0.71766057  0.25766789  0.44650517    -0.18500
C623        C  0.67814412  0.26104700  0.44904766     0.09900
C624        C  0.66163288  0.28641270  0.43490949    -0.07300
C625        C  0.68576683  0.30756305  0.41782350    -0.18500
C626        C  0.72529104  0.30406731  0.41509661     0.09900
S627        S  0.65090322  0.23292655  0.47337656    -0.33500
S628        S  0.75400287  0.33425337  0.39864077    -0.33500
H629        H  0.78801141  0.32589764  0.41886836     0.27900
H630        H  0.62206362  0.23239337  0.44190150     0.27900
H631        H  0.72961107  0.23816296  0.45782690     0.18500
H632        H  0.67409468  0.32792912  0.40954294     0.18500
C633        C  0.84812150  0.30285139  0.34616927    -0.07300
C634        C  0.86498932  0.32387634  0.37279382    -0.18500
C635        C  0.87260982  0.35158837  0.35816392     0.09900
C636        C  0.86396765  0.35793062  0.31581784    -0.07300
C637        C  0.84959890  0.33609539  0.28901416    -0.18500
C638        C  0.84115379  0.30893412  0.30375958     0.09900
S639        S  0.89046855  0.37787261  0.39556160    -0.33500
S640        S  0.82012256  0.28238359  0.26848580    -0.33500
H641        H  0.80772089  0.30153182  0.23771615     0.27900
H642        H  0.87648833  0.40184207  0.37491466     0.27900
H643        H  0.86971581  0.31923507  0.40575233     0.18500
H644        H  0.84321264  0.34074129  0.25643814     0.18500
C645        C  0.84709506  0.20639778  0.42113426    -0.07300
C646        C  0.82684316  0.19251199  0.45306790    -0.18500
C647        C  0.82601116  0.16328574  0.45690714     0.09900
C648        C  0.85195482  0.14671646  0.43452720    -0.07300
C649        C  0.87670975  0.16051928  0.40670193    -0.18500
C650        C  0.87293750  0.18969962  0.39768842     0.09900
S651        S  0.78748158  0.14921654  0.48787073    -0.33500
S652        S  0.89909797  0.20424822  0.35406592    -0.33500
H653        H  0.91376554  0.17858335  0.33931142     0.27900
H654        H  0.77166855  0.13292387  0.45432117     0.27900
H655        H  0.80614943  0.20321524  0.47147217     0.18500
H656        H  0.89733475  0.14804613  0.39024321     0.18500
C657        C  0.73483964  0.27370942  0.09898782    -0.07300
C658        C  0.70417301  0.27385841  0.12736993    -0.18500
C659        C  0.66847542  0.28439420  0.11627241     0.09900
C660        C  0.66357696  0.29673691  0.07677266    -0.07300
C661        C  0.69520408  0.29977784  0.05024818    -0.18500
C662        C  0.73089713  0.28869915  0.06115085     0.09900
S663        S  0.63001574  0.28024277  0.15293738    -0.33500
S664        S  0.77050754  0.29618011  0.02713062    -0.33500
H665        H  0.80035948  0.29239237  0.05646397     0.27900
H666        H  0.60824493  0.30287124  0.13795417     0.27900
H667        H  0.70723397  0.26485503  0.15824894     0.18500
H668        H  0.69186917  0.31030402  0.02033130     0.18500
C669        C  0.67393847  0.19554277  0.21752499    -0.07300
C670        C  0.67640010  0.20280389  0.17560922    -0.18500
C671        C  0.71166652  0.21018187  0.15878613     0.09900
C672        C  0.74325425  0.21721287  0.18671831    -0.07300
C673        C  0.74118003  0.20784045  0.22823784    -0.18500
C674        C  0.70769213  0.19456123  0.24246746     0.09900
S675        S  0.71486876  0.20614775  0.10257845    -0.33500
S676        S  0.71058801  0.17443652  0.29002864    -0.33500
H677        H  0.69220519  0.15014353  0.27237386     0.27900
H678        H  0.67548482  0.20643831  0.09258497     0.27900
H679        H  0.65093397  0.20091020  0.15572172     0.18500
H680        H  0.76632959  0.20928995  0.24869302     0.18500
C681        C  0.85951529  0.35709736  0.16946063    -0.07300
C682        C  0.88517921  0.33604599  0.18234661    -0.18500
C683        C  0.87648773  0.30699832  0.17623391     0.09900
C684        C  0.84153467  0.29860341  0.15622736    -0.07300
C685        C  0.81801026  0.31979970  0.13974685    -0.18500
C686        C  0.82707208  0.34863767  0.14491231     0.09900
S687        S  0.90960351  0.28204914  0.19805778    -0.33500
S688        S  0.79560201  0.37341850  0.11972343    -0.33500
H689        H  0.82435805  0.39440877  0.11378180     0.27900
H690        H  0.88208272  0.26105633  0.20817026     0.27900
H691        H  0.91053950  0.34199530  0.20079509     0.18500
H692        H  0.79184983  0.31405982  0.12285358     0.18500
C693        C  0.83735415  0.19700005  0.09040641    -0.07300
C694        C  0.81091467  0.17389469  0.08855462    -0.18500
C695        C  0.82258411  0.14604816  0.08680893     0.09900
C696        C  0.85969179  0.14023782  0.07339714    -0.07300
C697        C  0.88569559  0.16328131  0.06822718    -0.18500
C698        C  0.87538552  0.19160461  0.07784668     0.09900
S699        S  0.78888208  0.11768855  0.10008948    -0.33500
S700        S  0.90868367  0.22014228  0.06616026    -0.33500
H701        H  0.94053528  0.20320617  0.05913230     0.27900
H702        H  0.75656523  0.13444788  0.10535415     0.27900
H703        H  0.78126037  0.17740898  0.09489457     0.18500
H704        H  0.91305312  0.15928132  0.05426742     0.18500
C705        C  0.82380952  0.22190183  0.61392613     0.85300
C706        C  0.79167000  0.23696507  0.58805234    -0.55000
C707        C  0.77304917  0.25768570  0.61020378     0.08200
C708        C  0.78796220  0.26095418  0.65477271     0.19200
C709        C  0.85034503  0.24689531  0.62839091    -0.55700
C710        C  0.83118146  0.26778281  0.64916765     0.08300
C711        C  0.80571749  0.21240961  0.65561516    -0.55200
C712        C  0.78283460  0.23111266  0.67324909     0.08900
H713        H  0.78321434  0.23064967  0.55627240     0.13400
H714        H  0.77387774  0.27739789  0.67376287    -0.00900
H715        H  0.88013538  0.24950810  0.62051768     0.13700
H716        H  0.80542309  0.19065467  0.66686713     0.13500
C717        C  0.82978146  0.23452594  0.90668832     0.85300
C718        C  0.85445055  0.25812212  0.88746451    -0.55000
C719        C  0.83318061  0.27812681  0.86791383     0.08200
C720        C  0.78939279  0.27346631  0.87088145     0.19200
C721        C  0.80344632  0.25154342  0.93704729    -0.55700
C722        C  0.78155162  0.27161847  0.91749638     0.08300
C723        C  0.80283102  0.22392208  0.87060898    -0.55200
C724        C  0.77824047  0.24338161  0.85575112     0.08900
H725        H  0.88541412  0.25971767  0.89004449     0.13400
H726        H  0.77339749  0.29000876  0.85398379    -0.00900
H727        H  0.80018479  0.24731358  0.97018107     0.13700
H728        H  0.79906624  0.20151769  0.86287751     0.13500
O729        O  0.92504796  0.44198992  0.69379561    -0.83000
C730        C  0.78757235  0.46259637  0.78066823     0.96300
O731        O  0.81142972  0.48080732  0.76706960    -0.72100
O732        O  0.88651765  0.48305480  0.79287615    -0.75700
Al733      Al  0.85957824  0.47879222  0.73860799     1.49000
C734        C  0.91679155  0.47119309  0.80560854     0.91600
O735        O  0.89370943  0.40181286  0.79258458    -0.81900
O736        O  0.83599807  0.39970466  0.68704021    -0.75500
Al737      Al  0.90730723  0.42377806  0.74400712     1.90100
O738        O  0.83554233  0.39051399  0.77017205    -0.74600
O739        O  0.79408150  0.44312052  0.69833757    -0.74400
O740        O  0.79651679  0.43679183  0.78164917    -0.80100
O741        O  0.83126181  0.47997359  0.68590879    -0.78300
O742        O  0.86195789  0.44064658  0.73948548    -1.14400
O743        O  0.90525639  0.48484488  0.70556538    -0.73600
C744        C  0.92246778  0.46748433  0.68236504     0.97100
C745        C  0.86448371  0.38536441  0.79252934     0.93500
Al746      Al  0.81934932  0.41941737  0.73484213     1.55600
O747        O  0.93039570  0.45142392  0.78352523    -0.78200
C748        C  0.80058650  0.46571318  0.67894341     0.97700
C749        C  0.86524536  0.38470483  0.68616152     0.92600
O750        O  0.89430930  0.39168233  0.70842279    -0.83500
O751        O  0.92544027  0.04761668  0.53108231    -0.83000
C752        C  0.79741530  0.03174647  0.93444824     0.96300
O753        O  0.82801678  0.01881125  0.94165750    -0.72100
O754        O  0.90019453  0.01606179  0.96403000    -0.75700
Al755      Al  0.85216781  0.02055679  0.49247446     1.49000
C756        C  0.91806433  0.03176204  0.93818461     0.91600
O757        O  0.89067177  0.11008274  0.96335489    -0.81900
O758        O  0.83295043  0.10568061  0.52874977    -0.75500
Al759      Al  0.90411901  0.07714409  0.99616399     1.90100
O760        O  0.83188234  0.10010000  0.94311658    -0.74600
O761        O  0.79296415  0.05943120  0.53937261    -0.74400
O762        O  0.78999111  0.05430073  0.95362111    -0.80100
O763        O  0.80455672  0.01642114  0.51992221    -0.78300
O764        O  0.85586040  0.05848230  0.49286341    -1.14400
O765        O  0.87772773  0.01871046  0.54686867    -0.73600
C766        C  0.91094093  0.02874926  0.55522893     0.97100
C767        C  0.85989901  0.11740054  0.94547014     0.93500
Al768      Al  0.81383125  0.07807613  0.49215346     1.55600
O769        O  0.91910368  0.05840275  0.94397340    -0.78200
C770        C  0.78267614  0.03369331  0.53664062     0.97700
C771        C  0.86315996  0.11216799  0.54882614     0.92600
O772        O  0.89318381  0.09809051  0.54420714    -0.83500
C773        C  0.98943634  0.47806376  0.90043667     0.85300
C774        C  0.95991719  0.46272646  0.87011955    -0.55000
C775        C  0.93765673  0.48079924  0.84606501     0.08200
C776        C  0.94670066  0.01434796  0.85931284     0.19200
C777        C  0.01164888  0.49815338  0.87073407    -0.55700
C778        C  0.98994650  0.01681412  0.84791041     0.08300
C779        C  0.96673069  0.49732973  0.92708561    -0.55200
C780        C  0.94480105  0.01730074  0.90891252     0.08900
H781        H  0.95954840  0.43990636  0.86511174     0.13400
H782        H  0.92821632  0.02917073  0.84172647    -0.00900
H783        H  0.04197875  0.49590155  0.86511542     0.13700
H784        H  0.96878761  0.49670937  0.96105239     0.13500
O785        O  0.00558652  0.43402716  0.54458277    -0.83000
C786        C  0.14029295  0.44925753  0.94915259     0.96300
O787        O  0.11868256  0.46715101  0.96497939    -0.72100
O788        O  0.04667356  0.46947816  0.94128417    -0.75700
Al789      Al  0.07325177  0.46707054  0.49382517     1.49000
C790        C  0.01292855  0.46097824  0.93246642     0.91600
O791        O  0.02503055  0.39240012  0.94476900    -0.81900
O792        O  0.08975653  0.38830752  0.54287808    -0.75500
Al793      Al  0.01787081  0.41412184  0.99422115     1.90100
O794        O  0.08320253  0.37848264  0.96072562    -0.74600
O795        O  0.13618284  0.43075793  0.53035414    -0.74400
O796        O  0.12996493  0.42332621  0.94858356    -0.80100
O797        O  0.10133911  0.46731622  0.54591677    -0.78300
O798        O  0.06609899  0.42960081  0.49344408    -1.14400
O799        O  0.02909881  0.47533315  0.52605460    -0.73600
C800        C  0.00954498  0.46037141  0.55119568     0.97100
C801        C  0.05175887  0.37515077  0.94096914     0.93500
Al802      Al  0.10623860  0.40731427  0.49450571     1.55600
O803        O  0.99655942  0.44319734  0.95683804    -0.78200
C804        C  0.13159097  0.45336397  0.55063142     0.97700
C805        C  0.05913726  0.37389091  0.54474384     0.92600
O806        O  0.02912779  0.38198505  0.52613111    -0.83500
O807        O  0.98876521  0.03863636  0.70784657    -0.83000
C808        C  0.12664160  0.03085943  0.79749987     0.96300
O809        O  0.09499804  0.01697678  0.79625004    -0.72100
O810        O  0.01964894  0.00993086  0.78134563    -0.75700
Al811      Al  0.06395634  0.01521654  0.74598131     1.49000
C812        C  0.00428729  0.02726659  0.80616303     0.91600
O813        O  0.03129450  0.10380437  0.77013387    -0.81900
O814        O  0.08184430  0.09950939  0.69688732    -0.75500
Al815      Al  0.01448151  0.06902726  0.74150642     1.90100
O816        O  0.09272247  0.09819719  0.78069906    -0.74600
O817        O  0.12050699  0.05252965  0.68965118    -0.74400
O818        O  0.13228683  0.05232561  0.77462476    -0.80100
O819        O  0.11027325  0.01066696  0.71551293    -0.78300
O820        O  0.06073551  0.05299446  0.74157119    -1.14400
O821        O  0.03618874  0.01066035  0.69436416    -0.73600
C822        C  0.00484251  0.02140093  0.68314670     0.97100
C823        C  0.06395512  0.11361027  0.78171933     0.93500
Al824      Al  0.10314246  0.07378856  0.73588099     1.55600
O825        O  0.00222737  0.05302330  0.79578102    -0.78200
C826        C  0.13159840  0.02770262  0.69594230     0.97700
C827        C  0.04922554  0.10371677  0.68099016     0.92600
O828        O  0.02074396  0.08804993  0.68961641    -0.83500
C829        C  0.10111007  0.22682713  0.84048067     0.85300
C830        C  0.07403759  0.24945503  0.85502433    -0.55000
C831        C  0.09067505  0.26870563  0.88184121     0.08200
C832        C  0.13341620  0.26338200  0.89235888     0.19200
C833        C  0.13521795  0.24505671  0.82168363    -0.55700
C834        C  0.15237349  0.26430956  0.84990781     0.08300
C835        C  0.11820120  0.21376053  0.88012526    -0.55200
C836        C  0.13825086  0.23193768  0.90548893     0.08900
H837        H  0.04551851  0.25201548  0.84162945     0.13400
H838        H  0.14442634  0.27907449  0.91574499    -0.00900
H839        H  0.14515280  0.24323401  0.78979678     0.13700
H840        H  0.12192174  0.19092704  0.88246402     0.13500
C841        C  0.09110234  0.21372972  0.62873677     0.85300
C842        C  0.11338337  0.22707860  0.66780793    -0.55000
C843        C  0.13436523  0.25147360  0.65871249     0.08200
C844        C  0.13175412  0.25909748  0.61236713     0.19200
C845        C  0.06748066  0.23784507  0.61045703    -0.55700
C846        C  0.08900278  0.26140860  0.60141314     0.08300
C847        C  0.12358123  0.20949802  0.59717012    -0.55200
C848        C  0.14684341  0.23253785  0.59177642     0.08900
H849        H  0.11576389  0.21653975  0.69788216     0.13400
H850        H  0.14837221  0.27833157  0.60319543    -0.00900
H851        H  0.03679922  0.23625257  0.60450381     0.13700
H852        H  0.13265351  0.18893557  0.58652857     0.13500
C853        C  0.98716711  0.47596587  0.58469665     0.85300
C854        C  0.01173817  0.49558060  0.61413170    -0.55000
C855        C  0.98745047  0.01256671  0.64105006     0.08200
C856        C  0.94370296  0.00901559  0.63227148     0.19200
C857        C  0.96063524  0.45973749  0.61560768    -0.55700
C858        C  0.94075573  0.47737336  0.64219594     0.08300
C859        C  0.96130739  0.49522275  0.56085813    -0.55200
C860        C  0.93695670  0.01172306  0.58292566     0.08900
H861        H  0.04253157  0.49338427  0.61731200     0.13400
H862        H  0.92629108  0.02355753  0.65118262    -0.00900
H863        H  0.96065879  0.43682414  0.61894843     0.13700
H864        H  0.95851203  0.49438403  0.52692886     0.13500
O865        O  0.42656846  0.30878774  0.78292426    -0.83000
C866        C  0.28534510  0.29546112  0.69505087     0.96300
O867        O  0.31519625  0.28127376  0.70005175    -0.72100
O868        O  0.38941136  0.27242057  0.71502052    -0.75700
Al869      Al  0.34733845  0.28666650  0.74897318     1.49000
C870        C  0.41298070  0.28434290  0.68989070     0.91600
O871        O  0.40081128  0.36414982  0.69778516    -0.81900
O872        O  0.34905234  0.37937975  0.75426544    -0.75500
Al873      Al  0.40804365  0.33493630  0.73943115     1.90100
O874        O  0.34196561  0.35585835  0.67532824    -0.74600
O875        O  0.29968113  0.34151332  0.78171772    -0.74400
O876        O  0.28645761  0.32153785  0.70399446    -0.80100
O877        O  0.30366953  0.29483613  0.78203267    -0.76300
O878        O  0.35914049  0.32285532  0.73924879    -1.14400
O879        O  0.37478171  0.28614443  0.80165083    -0.73600
C880        C  0.40916515  0.29300964  0.80912633     0.97100
C881        C  0.37346985  0.36936669  0.67242959     0.93500
Al882      Al  0.32260095  0.34752578  0.72915596     1.55600
O883        O  0.42035352  0.31058254  0.69324812    -0.78200
C884        C  0.28806953  0.31743813  0.79388418     0.97700
C885        C  0.37622267  0.38079983  0.78091374     0.92600
O886        O  0.40013623  0.36122206  0.78403932    -0.83500
O887        O  0.43290562  0.20976851  0.96071684    -0.83000
C888        C  0.30164477  0.21527627  0.55695417     0.96300
O889        O  0.33215423  0.22971430  0.55361605    -0.72100
O890        O  0.40416554  0.23983089  0.53760454    -0.75700
Al891      Al  0.35916001  0.23053222  0.00363784     1.49000
C892        C  0.42330299  0.22342023  0.56116885     0.91600
O893        O  0.40423222  0.14648120  0.53511020    -0.81900
O894        O  0.34978273  0.13942453  0.97738878    -0.75500
Al895      Al  0.41464003  0.18010086  0.99971104     1.90100
O896        O  0.34649354  0.15559368  0.55533016    -0.74600
O897        O  0.30365326  0.18116431  0.96012007    -0.74400
O898        O  0.29650882  0.19239070  0.53692024    -0.80100
O899        O  0.31058060  0.22706277  0.97340678    -0.78300
O900        O  0.36736215  0.19338663  0.00359363    -1.14400
O901        O  0.38205975  0.23512018  0.95048834    -0.73600
C902        C  0.41403841  0.22703465  0.93824391     0.97100
C903        C  0.37608575  0.14116682  0.55878513     0.93500
Al904      Al  0.32873418  0.16923139  0.00950358     1.55600
O905        O  0.42905444  0.19846290  0.54926894    -0.78200
C906        C  0.29188444  0.20616559  0.95712635     0.97700
C907        C  0.37723354  0.13816832  0.95236923     0.92600
O908        O  0.40255204  0.15772609  0.95109664    -0.83500
C909        C  0.33468956  0.03041218  0.88513199     0.85300
C910        C  0.31096483  0.01687990  0.92123137    -0.55000
C911        C  0.29056529  0.49340891  0.91203886     0.08200
C912        C  0.29442784  0.48452113  0.86615915     0.19200
C913        C  0.36018575  0.00699327  0.86997156    -0.55700
C914        C  0.33757859  0.48364986  0.85780554     0.08300
C915        C  0.30436806  0.03374942  0.84942252    -0.55200
C916        C  0.28252100  0.00991498  0.84033996     0.08900
H917        H  0.30870608  0.02689252  0.95177458     0.13400
H918        H  0.27946946  0.46425633  0.85771876    -0.00900
H919        H  0.39111242  0.00925562  0.86797945     0.13700
H920        H  0.29506224  0.05417500  0.83844870     0.13500
C921        C  0.33078176  0.03153628  0.62370803     0.85300
C922        C  0.35740742  0.00619026  0.62187418    -0.55000
C923        C  0.34018639  0.48043663  0.62996595     0.08200
C924        C  0.29780569  0.48331358  0.64164026     0.19200
C925        C  0.29687818  0.02284821  0.59368554    -0.55700
C926        C  0.27854649  0.49832684  0.60457025     0.08300
C927        C  0.31444666  0.03000551  0.66845313    -0.55200
C928        C  0.29229214  0.00629032  0.67690120     0.08900
H929        H  0.38692220  0.00707315  0.61243019     0.13400
H930        H  0.28566163  0.46231067  0.64996840    -0.00900
H931        H  0.28796549  0.03595959  0.56759099     0.13700
H932        H  0.31630742  0.04850257  0.68837982     0.13500
C933        C  0.43134485  0.27640519  0.84300935     0.85300
C934        C  0.40778035  0.25661014  0.87235922    -0.55000
C935        C  0.42956264  0.23948513  0.89824423     0.08200
C936        C  0.47285387  0.24234021  0.88947106     0.19200
C937        C  0.45944265  0.29215313  0.87418428    -0.55700
C938        C  0.48031702  0.27440969  0.90028110     0.08300
C939        C  0.45551979  0.25684668  0.81848966    -0.55200
C940        C  0.47672940  0.23873735  0.84031812     0.08900
H941        H  0.37707611  0.25847240  0.87568606     0.13400
H942        H  0.49070099  0.22778974  0.90833903    -0.00900
H943        H  0.45965832  0.31505903  0.87818313     0.13700
H944        H  0.45565510  0.25719445  0.78451444     0.13500
C945        C  0.58976577  0.02177217  0.86078361     0.85300
C946        C  0.61170320  0.01334783  0.82018955    -0.55000
C947        C  0.63223569  0.48863576  0.81799247     0.08200
C948        C  0.63057632  0.47642862  0.86238446     0.19200
C949        C  0.56631351  0.99547646  0.87233420    -0.55700
C950        C  0.58789052  0.47251295  0.87233203     0.08300
C951        C  0.62218614  0.02407255  0.89405317    -0.55200
C952        C  0.64502040  0.00105610  0.89658494     0.08900
H953        H  0.61363452  0.02700826  0.79294192     0.13400
H954        H  0.64670678  0.45671380  0.86701876    -0.00900
H955        H  0.53685407  0.49669585  0.87558866     0.13700
H956        H  0.63185778  0.04442011  0.90702591     0.13500
O957        O  0.49198248  0.19396537  0.80798110    -0.83000
C958        C  0.63801977  0.19453046  0.73700010     0.96300
O959        O  0.61282135  0.21251482  0.72883094    -0.72100
O960        O  0.54348394  0.21933073  0.70310117    -0.75700
Al961      Al  0.56776462  0.22072953  0.75791432     1.49000
C962        C  0.50911536  0.21351121  0.69491089     0.91600
O963        O  0.52992032  0.14650375  0.71839546    -0.81900
O964        O  0.55881770  0.14902133  0.83851829    -0.75500
Al965      Al  0.51036845  0.17066143  0.76203162     1.90100
O966        O  0.58047426  0.13330306  0.75713325    -0.74600
O967        O  0.60955455  0.19093284  0.83690575    -0.74400
O968        O  0.63200266  0.17447683  0.76182899    -0.80100
O969        O  0.59733366  0.23071572  0.80549809    -0.78300
O970        O  0.55752327  0.18509244  0.77190379    -1.14400
O971        O  0.52415341  0.23314297  0.78910194    -0.73600
C972        C  0.50048002  0.22035226  0.81329469     0.97100
C973        C  0.55857175  0.13039657  0.72470623     0.93500
Al974      Al  0.59204160  0.16358268  0.79661928     1.55600
O975        O  0.49165914  0.19726629  0.71989831    -0.78200
C976        C  0.61742874  0.21681726  0.83040558     0.97700
C977        C  0.53272080  0.13169732  0.82751191     0.92600
O978        O  0.51146931  0.13821683  0.79735934    -0.83500
C979        C  0.59508958  0.02483020  0.63895661     0.85300
C980        C  0.56599941  0.00013176  0.63561760    -0.55000
C981        C  0.58199998  0.47812810  0.61102452     0.08200
C982        C  0.62434280  0.48249844  0.59819579     0.19200
C983        C  0.62938224  0.01156434  0.66308249    -0.55700
C984        C  0.64649913  0.48966172  0.63914281     0.08300
C985        C  0.61014289  0.02947384  0.59437779    -0.55200
C986        C  0.62685506  0.00654189  0.57590548     0.08900
H987        H  0.53945938  0.49899356  0.64608907     0.13400
H988        H  0.63349736  0.46371478  0.58079099    -0.00900
H989        H  0.64274287  0.02122482  0.69093380     0.13700
H990        H  0.61389420  0.05099872  0.58361824     0.13500
O991        O  0.49189907  0.30934279  0.95484595    -0.83000
C992        C  0.62794635  0.30049211  0.55658885     0.96300
O993        O  0.60984121  0.28055224  0.53737687    -0.72100
O994        O  0.53700722  0.27128579  0.55371865    -0.75700
Al995      Al  0.56370590  0.27965265  0.00285768     1.49000
C996        C  0.50546768  0.28022763  0.56641656     0.91600
O997        O  0.51582880  0.34987996  0.55666165    -0.81900
O998        O  0.57698840  0.35725545  0.95529279    -0.75500
Al999      Al  0.50747442  0.32793776  0.50628458     1.90100
O1000       O  0.57114844  0.36832649  0.53836518    -0.74600
O1001       O  0.62751693  0.32054372  0.97549036    -0.74400
O1002       O  0.61659475  0.32570463  0.55523255    -0.80100
O1003       O  0.59598405  0.28232910  0.95451091    -0.78300
O1004       O  0.55433018  0.31670907  0.00528210    -1.14400
O1005       O  0.52159114  0.26950563  0.96281007    -0.73600
C1006       C  0.49926299  0.28490488  0.94128293     0.97100
C1007       C  0.54128404  0.36929226  0.55973139     0.93500
Al1008     Al  0.59325455  0.34184699  0.00623409     1.55600
O1009       O  0.48754459  0.29793467  0.54381902    -0.78200
C1010       C  0.62620841  0.29772428  0.95511222     0.97700
C1011       C  0.54559963  0.36930216  0.95056511     0.92600
O1012       O  0.51631350  0.36158575  0.97088206    -0.83500
C1013       C  0.48719317  0.23084498  0.66156455     0.85300
C1014       C  0.46117204  0.21516377  0.62851947    -0.55000
C1015       C  0.44048780  0.23309366  0.60258958     0.08200
C1016       C  0.44575556  0.26478286  0.61485468     0.19200
C1017       C  0.51089243  0.25195256  0.63413728    -0.55700
C1018       C  0.48936105  0.26874186  0.60745865     0.08300
C1019       C  0.46047745  0.24883199  0.68588930    -0.55200
C1020       C  0.43857654  0.26644618  0.66378907     0.08900
H1021       H  0.46207777  0.19237914  0.62346795     0.13400
H1022       H  0.42789699  0.27924363  0.59583863    -0.00900
H1023       H  0.54172358  0.25052548  0.63157493     0.13700
H1024       H  0.45881353  0.24751249  0.71968891     0.13500
C1025       C  0.53624371  0.39515755  0.58487593    -0.07300
C1026       C  0.56043973  0.39956967  0.62004950    -0.18500
C1027       C  0.57147979  0.42710447  0.63293205     0.09900
C1028       C  0.56135506  0.45034555  0.60760026    -0.07300
C1029       C  0.53344002  0.44625557  0.57588514    -0.18500
C1030       C  0.51954126  0.41889798  0.56558365     0.09900
S1031       S  0.59840427  0.43124366  0.68153384    -0.33500
S1032       S  0.48284492  0.41850463  0.02290065    -0.33500
H1033       H  0.46812067  0.39173690  0.03455810     0.27900
H1034       H  0.58621502  0.45877233  0.69051484     0.27900
H1035       H  0.57254688  0.38152452  0.63598213     0.18500
H1036       H  0.52377555  0.46422581  0.55782883     0.18500
C1037       C  0.58265137  0.05327645  0.65783532    -0.07300
C1038       C  0.61229562  0.07213316  0.67147517    -0.18500
C1039       C  0.60506227  0.09823593  0.68989881     0.09900
C1040       C  0.56699330  0.10655912  0.69580265    -0.07300
C1041       C  0.53726318  0.08972199  0.67779950    -0.18500
C1042       C  0.54465128  0.06379353  0.65757542     0.09900
S1043       S  0.64610191  0.12059967  0.70314914    -0.33500
S1044       S  0.50475220  0.04747961  0.62912160    -0.33500
H1045       H  0.52643666  0.04046507  0.59394146     0.27900
H1046       H  0.62839574  0.14522206  0.68857513     0.27900
H1047       H  0.64191706  0.06678867  0.66708911     0.18500
H1048       H  0.50803343  0.09668559  0.67970951     0.18500
C1049       C  0.56544803  0.04840912  0.85801131    -0.07300
C1050       C  0.54365325  0.05293934  0.82133445    -0.18500
C1051       C  0.52549963  0.07872266  0.81464970     0.09900
C1052       C  0.53322629  0.10188996  0.84253169    -0.07300
C1053       C  0.55016332  0.09615357  0.88159989    -0.18500
C1054       C  0.56276858  0.06891579  0.89097898     0.09900
S1055       S  0.49309844  0.08045686  0.77020375    -0.33500
S1056       S  0.56944395  0.06116778  0.94601767    -0.33500
H1057       H  0.55765772  0.03253207  0.94195490     0.27900
H1058       H  0.46602816  0.09634437  0.79178335     0.27900
H1059       H  0.54077046  0.03632032  0.79771461     0.18500
H1060       H  0.55305789  0.11286095  0.90509428     0.18500
C1061       C  0.54678487  0.39621176  0.92844175    -0.07300
C1062       C  0.55619961  0.42006297  0.95330896    -0.18500
C1063       C  0.56823015  0.44549761  0.93535671     0.09900
C1064       C  0.57188727  0.44681675  0.89152686    -0.07300
C1065       C  0.56155683  0.42324917  0.86621225    -0.18500
C1066       C  0.54902365  0.39771079  0.88450816     0.09900
S1067       S  0.58044746  0.47567613  0.96884810    -0.33500
S1068       S  0.53760162  0.36682877  0.85240667    -0.33500
H1069       H  0.54292402  0.38013285  0.81344296     0.27900
H1070       H  0.58254386  0.46068569  0.00682646     0.27900
H1071       H  0.55658770  0.41817877  0.98712095     0.18500
H1072       H  0.56419582  0.42472347  0.83248337     0.18500
C1073       C  0.38035703  0.11190701  0.92821678    -0.07300
C1074       C  0.38892984  0.08744317  0.95097738    -0.18500
C1075       C  0.37816103  0.06036211  0.93578706     0.09900
C1076       C  0.35687352  0.05788389  0.89750216    -0.07300
C1077       C  0.35486968  0.08227612  0.87183494    -0.18500
C1078       C  0.36526220  0.10924576  0.88725805     0.09900
S1079       S  0.39016508  0.02967636  0.96681798    -0.33500
S1080       S  0.35426930  0.13951046  0.85514697    -0.33500
H1081       H  0.38099976  0.15850006  0.87428536     0.27900
H1082       H  0.41283714  0.04414453  0.99749888     0.27900
H1083       H  0.40124393  0.08978149  0.98227901     0.18500
H1084       H  0.34404620  0.08099420  0.83990928     0.18500
C1085       C  0.37315060  0.11581056  0.58634987    -0.07300
C1086       C  0.33855056  0.11228631  0.60752162    -0.18500
C1087       C  0.32431457  0.08565194  0.61876016     0.09900
C1088       C  0.34716893  0.06134451  0.61366992    -0.07300
C1089       C  0.38460472  0.06573690  0.59814147    -0.18500
C1090       C  0.39766838  0.09256743  0.58449921     0.09900
S1091       S  0.27575488  0.08401071  0.63755851    -0.33500
S1092       S  0.44555313  0.09566296  0.56490390    -0.33500
H1093       H  0.45274020  0.12281309  0.58252838     0.27900
H1094       H  0.26363850  0.11014405  0.62158661     0.27900
H1095       H  0.32050045  0.13034965  0.61199976     0.18500
H1096       H  0.40389620  0.04846497  0.59481170     0.18500
C1097       C  0.35571044  0.45777197  0.84228132    -0.07300
C1098       C  0.34825144  0.43214844  0.86308433    -0.18500
C1099       C  0.35951842  0.40631422  0.84623054     0.09900
C1100       C  0.37861658  0.40608552  0.80768636    -0.07300
C1101       C  0.38871943  0.43187188  0.78850855    -0.18500
C1102       C  0.37745239  0.45776072  0.80549845     0.09900
S1103       S  0.34457154  0.37421454  0.87257567    -0.33500
S1104       S  0.38668691  0.48990812  0.77667089    -0.33500
H1105       H  0.34568230  0.99830565  0.77977832     0.27900
H1106       H  0.37403234  0.35732574  0.85770266     0.27900
H1107       H  0.33222441  0.43215542  0.89182938     0.18500
H1108       H  0.40224804  0.43164675  0.75816633     0.18500
C1109       C  0.35848313  0.45223900  0.62841241    -0.07300
C1110       C  0.33875864  0.42984578  0.60744001    -0.18500
C1111       C  0.34676153  0.40145450  0.61625005     0.09900
C1112       C  0.37535668  0.39548500  0.64661714    -0.07300
C1113       C  0.39988332  0.41781766  0.66095975    -0.18500
C1114       C  0.39169883  0.44619680  0.65222129     0.09900
S1115       S  0.31917337  0.37324182  0.59025061    -0.33500
S1116       S  0.42175719  0.47417078  0.67500969    -0.33500
H1117       H  0.45114260  0.45677834  0.68987689     0.27900
H1118       H  0.29556950  0.39069764  0.56582032     0.27900
H1119       H  0.31585048  0.43467679  0.58568301     0.18500
H1120       H  0.42295126  0.41338045  0.68293265     0.18500
C1121       C  0.16835659  0.26367214  0.68236660    -0.07300
C1122       C  0.19675450  0.24549117  0.69716975    -0.18500
C1123       C  0.23569997  0.25438390  0.69955856     0.09900
C1124       C  0.24676095  0.28202032  0.68577391    -0.07300
C1125       C  0.21763051  0.30026693  0.67292595    -0.18500
C1126       C  0.17899236  0.29220909  0.67476785     0.09900
S1127       S  0.27026773  0.22995239  0.72000553    -0.33500
S1128       S  0.14395470  0.31914614  0.66557549    -0.33500
H1129       H  0.11315326  0.30360214  0.68275460     0.27900
H1130       H  0.24371798  0.21038306  0.73686095     0.27900
H1131       H  0.18875324  0.22384211  0.70464210     0.18500
H1132       H  0.22477887  0.32192301  0.66415195     0.18500
C1133       C  0.26860574  0.22594183  0.57877103    -0.07300
C1134       C  0.24926071  0.20646797  0.60399346    -0.18500
C1135       C  0.20990772  0.20786956  0.60961357     0.09900
C1136       C  0.18908593  0.22947663  0.58864472    -0.07300
C1137       C  0.20950930  0.25070721  0.56718922    -0.18500
C1138       C  0.24909764  0.24931486  0.56229522     0.09900
S1139       S  0.18834910  0.18124464  0.64322578    -0.33500
S1140       S  0.27675803  0.27797041  0.03930307    -0.33500
H1141       H  0.24543606  0.29580374  0.03355341     0.27900
H1142       H  0.22221253  0.17327794  0.66415687     0.27900
H1143       H  0.26462153  0.18850870  0.61622649     0.18500
H1144       H  0.19415655  0.26781380  0.55266413     0.18500
C1145       C  0.25272251  0.21030785  0.94182774    -0.07300
C1146       C  0.22326331  0.20826090  0.97128406    -0.18500
C1147       C  0.18513803  0.21292675  0.95956727     0.09900
C1148       C  0.17654418  0.22121640  0.91836397    -0.07300
C1149       C  0.20533421  0.21912120  0.88788732    -0.18500
C1150       C  0.24349408  0.21475716  0.89938296     0.09900
S1151       S  0.14850241  0.20579509  0.99704649    -0.33500
S1152       S  0.27886199  0.21614917  0.85883570    -0.33500
H1153       H  0.30996890  0.22533971  0.88452984     0.27900
H1154       H  0.11829396  0.20036242  0.96813501     0.27900
H1155       H  0.22993627  0.20269419  0.00351099     0.18500
H1156       H  0.19873832  0.22230639  0.85502955     0.18500
C1157       C  0.18672320  0.28308838  0.84104994    -0.07300
C1158       C  0.18775238  0.29653528  0.80186072    -0.18500
C1159       C  0.21780957  0.31516855  0.79214139     0.09900
C1160       C  0.25194922  0.31452589  0.81590719    -0.07300
C1161       C  0.25161703  0.30191780  0.85519657    -0.18500
C1162       C  0.21800041  0.28901249  0.87013350     0.09900
S1163       S  0.21036265  0.34088417  0.75157825    -0.33500
S1164       S  0.21776729  0.28144131  0.92573343    -0.33500
H1165       H  0.25225598  0.29577164  0.93722304     0.27900
H1166       H  0.23428060  0.36200307  0.77036826     0.27900
H1167       H  0.16399386  0.29406162  0.77972771     0.18500
H1168       H  0.27779997  0.30218250  0.87399936     0.18500
C1169       C  0.24040176  0.01297717  0.83145633    -0.07300
C1170       C  0.22178083  0.03608204  0.84988491    -0.18500
C1171       C  0.18259277  0.03984216  0.84482810     0.09900
C1172       C  0.16055254  0.02059583  0.82011526    -0.07300
C1173       C  0.17804863  0.99641081  0.80387297    -0.18500
C1174       C  0.21762458  0.99240836  0.80914584     0.09900
S1175       S  0.16235195  0.07076681  0.86854761    -0.33500
S1176       S  0.23314652  0.46115204  0.78822576    -0.33500
H1177       H  0.26839144  0.47457475  0.77906726     0.27900
H1178       H  0.12461856  0.05962044  0.86929224     0.27900
H1179       H  0.23764811  0.05159346  0.86889660     0.18500
H1180       H  0.16154265  0.98196236  0.78352624     0.18500
C1181       C  0.17272482  0.02090166  0.69166386    -0.07300
C1182       C  0.20001255  0.04166868  0.70519976    -0.18500
C1183       C  0.23884383  0.03548424  0.71055035     0.09900
C1184       C  0.25259683  0.00929368  0.69561671    -0.07300
C1185       C  0.22457640  0.98752009  0.68797005    -0.18500
C1186       C  0.18528825  0.99292610  0.68615722     0.09900
S1187       S  0.26672513  0.05927083  0.74433594    -0.33500
S1188       S  0.15533514  0.46174016  0.68139740    -0.33500
H1189       H  0.12847132  0.47684760  0.65752178     0.27900
H1190       H  0.29333410  0.03869587  0.75611547     0.27900
H1191       H  0.19059950  0.06223504  0.71558441     0.18500
H1192       H  0.23541594  0.46480867  0.68473797     0.18500
C1193       C  0.04425417  0.13056957  0.65884196    -0.07300
C1194       C  0.03427592  0.15400288  0.68350866    -0.18500
C1195       C  0.04571418  0.18179609  0.67263867     0.09900
C1196       C  0.06778570  0.18606385  0.63634411    -0.07300
C1197       C  0.06972359  0.16297983  0.60764985    -0.18500
C1198       C  0.06002907  0.13525497  0.61937324     0.09900
S1199       S  0.03286387  0.21117737  0.70583820    -0.33500
S1200       S  0.07140185  0.10659182  0.58426911    -0.33500
H1201       H  0.04831935  0.08563658  0.60329108     0.27900
H1202       H  0.01417518  0.19502271  0.73667759     0.27900
H1203       H  0.02078536  0.15024966  0.71335626     0.18500
H1204       H  0.08051022  0.16591433  0.57638148     0.18500
C1205       C  0.08255988  0.20207474  0.81540929    -0.07300
C1206       C  0.10464429  0.18934425  0.78464612    -0.18500
C1207       C  0.09949582  0.16077056  0.77362667     0.09900
C1208       C  0.06964592  0.14424335  0.79178321    -0.07300
C1209       C  0.04439539  0.15755737  0.81848380    -0.18500
C1210       C  0.05101104  0.18581754  0.83170412     0.09900
S1211       S  0.13209124  0.14650149  0.73606400    -0.33500
S1212       S  0.02101909  0.19916618  0.87277265    -0.33500
H1213       H  0.00245649  0.17333724  0.88292158     0.27900
H1214       H  0.16128630  0.16749489  0.74055144     0.27900
H1215       H  0.12848116  0.20082273  0.77145797     0.18500
H1216       H  0.02082446  0.14514988  0.83108031     0.18500
C1217       C  0.23976246  0.48847230  0.58911761    -0.07300
C1218       C  0.23258262  0.45903583  0.58884214    -0.18500
C1219       C  0.19594592  0.44743209  0.58380546     0.09900
C1220       C  0.16539257  0.46518491  0.57336621    -0.07300
C1221       C  0.17177525  0.49466513  0.57367486    -0.18500
C1222       C  0.20827242  0.50662128  0.58273403     0.09900
S1223       S  0.19012786  0.40965316  0.59198516    -0.33500
S1224       S  0.21296657  0.04390074  0.58168386    -0.33500
H1225       H  0.17401449  0.04994128  0.57589617     0.27900
H1226       H  0.15193570  0.41093849  0.60501160     0.27900
H1227       H  0.25537893  0.44453442  0.59451665     0.18500
H1228       H  0.14837686  0.50830142  0.56538601     0.18500
C1229       C  0.25656783  0.48167900  0.93468636    -0.07300
C1230       C  0.24806796  0.45245702  0.92917029    -0.18500
C1231       C  0.21050359  0.44131224  0.93051225     0.09900
C1232       C  0.18012768  0.45943809  0.93976940    -0.07300
C1233       C  0.18946355  0.48817235  0.94935834    -0.18500
C1234       C  0.22693482  0.49930909  0.94791400     0.09900
S1235       S  0.20363851  0.40412155  0.91842219    -0.33500
S1236       S  0.23373457  0.03615391  0.95610795    -0.33500
H1237       H  0.19654300  0.04225695  0.96894735     0.27900
H1238       H  0.17280799  0.40846964  0.89029518     0.27900
H1239       H  0.27055580  0.43845525  0.91998757     0.18500
H1240       H  0.16722638  0.50224364  0.95889285     0.18500
C1241       C  0.04681156  0.34917513  0.91614725    -0.07300
C1242       C  0.06905868  0.34707193  0.88055623    -0.18500
C1243       C  0.08040239  0.32071077  0.86613098     0.09900
C1244       C  0.07236985  0.29609018  0.89005856    -0.07300
C1245       C  0.04679302  0.29787226  0.92314433    -0.18500
C1246       C  0.03270633  0.32414256  0.93532259     0.09900
S1247       S  0.10426880  0.32055999  0.81689670    -0.33500
S1248       S  0.99882448  0.32464065  0.97716935    -0.33500
H1249       H  0.98147201  0.34977251  0.96416136     0.27900
H1250       H  0.08913857  0.29406295  0.80356334     0.27900
H1251       H  0.07927765  0.36621627  0.86517984     0.18500
H1252       H  0.03851553  0.27889444  0.94013895     0.18500
C1253       C  0.06174912  0.34452207  0.55973875    -0.07300
C1254       C  0.08511100  0.32708111  0.53596932    -0.18500
C1255       C  0.09048130  0.29888669  0.54637987     0.09900
C1256       C  0.07406687  0.28779632  0.58300066    -0.07300
C1257       C  0.04910216  0.30467464  0.60603544    -0.18500
C1258       C  0.04226783  0.33295194  0.59437779     0.09900
S1259       S  0.11851961  0.27805496  0.51136086    -0.33500
S1260       S  0.01020184  0.35310772  0.62600271    -0.33500
H1261       H  0.01927550  0.38018908  0.61035158     0.27900
H1262       H  0.09851063  0.25243538  0.51927454     0.27900
H1263       H  0.09899823  0.33540765  0.50833646     0.18500
H1264       H  0.03645301  0.29628763  0.63432665     0.18500
C1265       C  0.76591490  0.01913407  0.90959350    -0.07300
C1266       C  0.75108219  0.99289579  0.92348662    -0.18500
C1267       C  0.71167022  0.98662772  0.92090862     0.09900
C1268       C  0.68703911  0.00629673  0.90193085    -0.07300
C1269       C  0.70315359  0.03092580  0.88373132    -0.18500
C1270       C  0.74187060  0.03758381  0.88757641     0.09900
S1271       S  0.69357085  0.45398479  0.94015299    -0.33500
S1272       S  0.75801905  0.07199801  0.86904910    -0.33500
H1273       H  0.79704975  0.06544643  0.86781275     0.27900
H1274       H  0.65817380  0.46504666  0.95074396     0.27900
H1275       H  0.76924978  0.97905141  0.94167169     0.18500
H1276       H  0.68542852  0.04562954  0.86668165     0.18500
C1277       C  0.66310660  0.01094583  0.55083352    -0.07300
C1278       C  0.69082632  0.98964516  0.55107482    -0.18500
C1279       C  0.72996212  0.99628890  0.54797724     0.09900
C1280       C  0.74220894  0.02496498  0.54369049    -0.07300
C1281       C  0.71413271  0.04513461  0.53532025    -0.18500
C1282       C  0.67498774  0.03785947  0.53577265     0.09900
S1283       S  0.76232733  0.96707167  0.55022910    -0.33500
S1284       S  0.64153167  0.06118384  0.51065241    -0.33500
H1285       H  0.66880578  0.07914953  0.49160603     0.27900
H1286       H  0.78799711  0.98162331  0.07425858     0.27900
H1287       H  0.68311948  0.47293125  0.54602803     0.18500
H1288       H  0.72282484  0.06632634  0.52583218     0.18500
C1289       C  0.74673529  0.47048781  0.78760416    -0.07300
C1290       C  0.71866815  0.44845696  0.78852388    -0.18500
C1291       C  0.67951635  0.45403347  0.79054623     0.09900
C1292       C  0.66724682  0.48228762  0.79362339    -0.07300
C1293       C  0.69444237  0.50426914  0.78774410    -0.18500
C1294       C  0.73374134  0.49881628  0.78540274     0.09900
S1295       S  0.64626665  0.42409358  0.79032634    -0.33500
S1296       S  0.76537550  0.03078335  0.78072342    -0.33500
H1297       H  0.79066657  0.52006582  0.81343953     0.27900
H1298       H  0.61389874  0.43975010  0.77922589     0.27900
H1299       H  0.72706180  0.42650514  0.78702743     0.18500
H1300       H  0.68581571  0.02693123  0.79258818     0.18500
C1301       C  0.76812185  0.47541432  0.65285907    -0.07300
C1302       C  0.74329969  0.45365724  0.63749382    -0.18500
C1303       C  0.70381410  0.45715793  0.63392540     0.09900
C1304       C  0.68830763  0.48377083  0.64411537    -0.07300
C1305       C  0.71403964  0.50660682  0.65403340    -0.18500
C1306       C  0.75358221  0.50276622  0.65790818     0.09900
S1307       S  0.67461180  0.42620733  0.62016794    -0.33500
S1308       S  0.78371919  0.53317757  0.67107771    -0.33500
H1309       H  0.81426545  0.52441001  0.64637670     0.27900
H1310       H  0.70371254  0.41045086  0.60186245     0.27900
H1311       H  0.75454155  0.43265890  0.63291236     0.18500
H1312       H  0.70346737  0.52779780  0.65846441     0.18500
C1313       C  0.73624899  0.23596522  0.85074016    -0.07300
C1314       C  0.71447959  0.25365319  0.82499852    -0.18500
C1315       C  0.67445992  0.25088276  0.82201181     0.09900
C1316       C  0.65518592  0.22899550  0.84462259    -0.07300
C1317       C  0.67643038  0.21286264  0.87275637    -0.18500
C1318       C  0.71630568  0.21550601  0.87583161     0.09900
S1319       S  0.64944270  0.27520724  0.78802033    -0.33500
S1320       S  0.73929369  0.19180419  0.91217701    -0.33500
H1321       H  0.70913492  0.17168623  0.91589401     0.27900
H1322       H  0.68096992  0.29287787  0.77800406     0.27900
H1323       H  0.72913419  0.26969200  0.80668003     0.18500
H1324       H  0.66168325  0.19672622  0.89083282     0.18500
C1325       C  0.74313934  0.28026477  0.93204783    -0.07300
C1326       C  0.71925191  0.25980760  0.95090516    -0.18500
C1327       C  0.67973779  0.26329110  0.95347899     0.09900
C1328       C  0.66315092  0.28845216  0.93861121    -0.07300
C1329       C  0.68737431  0.30954530  0.92151739    -0.18500
C1330       C  0.72693791  0.30601056  0.91889204     0.09900
S1331       S  0.65261152  0.23557134  0.97883432    -0.33500
S1332       S  0.75556206  0.33607855  0.90175879    -0.33500
H1333       H  0.78985510  0.32769004  0.92132691     0.27900
H1334       H  0.62404998  0.23419992  0.94708952     0.27900
H1335       H  0.73114398  0.24034168  0.96247286     0.18500
H1336       H  0.67568047  0.32982306  0.91279785     0.18500
C1337       C  0.84962897  0.30351276  0.84761992    -0.07300
C1338       C  0.86628594  0.32556557  0.87248590    -0.18500
C1339       C  0.87327008  0.35269931  0.85559275     0.09900
C1340       C  0.86405335  0.35742007  0.81296436    -0.07300
C1341       C  0.84990752  0.33463424  0.78789159    -0.18500
C1342       C  0.84261073  0.30795115  0.80462575     0.09900
S1343       S  0.89071034  0.38066721  0.89038580    -0.33500
S1344       S  0.82228647  0.28081671  0.76995616    -0.33500
H1345       H  0.83878950  0.25785434  0.79100180     0.27900
H1346       H  0.87002685  0.40248717  0.87129295     0.27900
H1347       H  0.87121221  0.32222053  0.90577518     0.18500
H1348       H  0.84312134  0.33790800  0.75493344     0.18500
C1349       C  0.84880425  0.20795237  0.92481395    -0.07300
C1350       C  0.82717463  0.19302221  0.95461161    -0.18500
C1351       C  0.82681209  0.16365016  0.95692855     0.09900
C1352       C  0.85452607  0.14790700  0.93573804    -0.07300
C1353       C  0.88042936  0.16277268  0.91037994    -0.18500
C1354       C  0.87623984  0.19206522  0.90226543     0.09900
S1355       S  0.78644362  0.14840882  0.98371445    -0.33500
S1356       S  0.90411525  0.20765386  0.86070946    -0.33500
H1357       H  0.92466660  0.18343370  0.85011084     0.27900
H1358       H  0.77402154  0.13216490  0.94856015     0.27900
H1359       H  0.80512689  0.20318809  0.97185872     0.18500
H1360       H  0.90226842  0.15096707  0.89477951     0.18500
C1361       C  0.73784503  0.27291846  0.59702995    -0.07300
C1362       C  0.70793037  0.27497153  0.62612724    -0.18500
C1363       C  0.67220343  0.28529652  0.61474404     0.09900
C1364       C  0.66621805  0.29476614  0.57367929    -0.07300
C1365       C  0.69720275  0.29608662  0.54602180    -0.18500
C1366       C  0.73318634  0.28578348  0.55760462     0.09900
S1367       S  0.63508405  0.28462290  0.65333505    -0.33500
S1368       S  0.77240957  0.29186795  0.52256104    -0.33500
H1369       H  0.80248835  0.28966350  0.55208531     0.27900
H1370       H  0.61425772  0.30715002  0.63645808     0.27900
H1371       H  0.71152187  0.26757942  0.65790772     0.18500
H1372       H  0.69327532  0.30501616  0.51506643     0.18500
C1373       C  0.67598310  0.19823623  0.71922924    -0.07300
C1374       C  0.67831315  0.20542917  0.67726694    -0.18500
C1375       C  0.71361085  0.21220602  0.66014458     0.09900
C1376       C  0.74548816  0.21908313  0.68771058    -0.07300
C1377       C  0.74345837  0.21009633  0.72939623    -0.18500
C1378       C  0.70988579  0.19718926  0.74402252     0.09900
S1379       S  0.71657731  0.20602213  0.60437626    -0.33500
S1380       S  0.71302640  0.17735806  0.79184526    -0.33500
H1381       H  0.69556614  0.15271006  0.77419117     0.27900
H1382       H  0.67830326  0.21214330  0.59412250     0.27900
H1383       H  0.65287345  0.20333349  0.65734567     0.18500
H1384       H  0.76876946  0.21138884  0.74962685     0.18500
C1385       C  0.86303242  0.35640573  0.66500520    -0.07300
C1386       C  0.88873239  0.33549258  0.67841012    -0.18500
C1387       C  0.88015446  0.30638677  0.67277413     0.09900
C1388       C  0.84552403  0.29782463  0.65235169    -0.07300
C1389       C  0.82218156  0.31882022  0.63506278    -0.18500
C1390       C  0.83071174  0.34768658  0.64034172     0.09900
S1391       S  0.91280886  0.28159055  0.69576572    -0.33500
S1392       S  0.79799827  0.37198142  0.61600744    -0.33500
H1393       H  0.82625907  0.39302758  0.60833254     0.27900
H1394       H  0.88478732  0.26122582  0.70690634     0.27900
H1395       H  0.91395497  0.34160835  0.69697339     0.18500
H1396       H  0.79622576  0.31288919  0.61790785     0.18500
C1397       C  0.83792194  0.19462727  0.59220951    -0.07300
C1398       C  0.81287970  0.17072290  0.59512681    -0.18500
C1399       C  0.82581524  0.14325261  0.59252882     0.09900
C1400       C  0.86113688  0.13839851  0.57401356    -0.07300
C1401       C  0.88500764  0.16200341  0.56453577    -0.18500
C1402       C  0.87426006  0.19012701  0.57445022     0.09900
S1403       S  0.79536426  0.11405509  0.60992123    -0.33500
S1404       S  0.90328259  0.21944209  0.55593970    -0.33500
H1405       H  0.93503694  0.20348755  0.54472656     0.27900
H1406       H  0.76863785  0.13059919  0.63087583     0.27900
H1407       H  0.78358328  0.17341198  0.60420970     0.18500
H1408       H  0.91051206  0.15853971  0.54662709     0.18500
C1409       C  0.82570383  0.72168478  0.11695211     0.85300
C1410       C  0.79302748  0.73649473  0.09143918    -0.55000
C1411       C  0.77333960  0.75636655  0.11417243     0.08200
C1412       C  0.78807635  0.75931852  0.15887434     0.19200
C1413       C  0.85118454  0.74691153  0.13241839    -0.55700
C1414       C  0.83117405  0.76703279  0.15375928     0.08300
C1415       C  0.80779317  0.71117332  0.15823772    -0.55200
C1416       C  0.78411825  0.72909990  0.17638354     0.08900
H1417       H  0.78496715  0.73052020  0.05941405     0.13400
H1418       H  0.77312500  0.77516042  0.17816173    -0.00900
H1419       H  0.88094239  0.75026284  0.12491386     0.13700
H1420       H  0.80828612  0.68926326  0.16876267     0.13500
C1421       C  0.83143695  0.73429784  0.41028819     0.85300
C1422       C  0.85574937  0.75814170  0.39133843    -0.55000
C1423       C  0.83419520  0.77829751  0.37268537     0.08200
C1424       C  0.79043028  0.77351309  0.37632600     0.19200
C1425       C  0.80555305  0.75077100  0.44164809    -0.55700
C1426       C  0.78321713  0.77087498  0.42306140     0.08300
C1427       C  0.80396278  0.72400013  0.37446123    -0.55200
C1428       C  0.77932417  0.74364111  0.36028985     0.08900
H1429       H  0.88672707  0.75978950  0.39344028     0.13400
H1430       H  0.77408858  0.79027462  0.36031506    -0.00900
H1431       H  0.80284688  0.74613824  0.47474871     0.13700
H1432       H  0.80011865  0.70167353  0.36625052     0.13500
O1433       O  0.92364200  0.94154268  0.19564758    -0.83000
C1434       C  0.78728781  0.96295803  0.28609027     0.96300
O1435       O  0.81062425  0.98070276  0.27043296    -0.72100
O1436       O  0.88594481  0.98369895  0.29350490    -0.75700
Al1437     Al  0.85786466  0.97823262  0.24042932     1.49000
C1438       C  0.91614865  0.97192074  0.30647887     0.91600
O1439       O  0.89515101  0.90183467  0.29596496    -0.81900
O1440       O  0.83395107  0.89773408  0.19385427    -0.75500
Al1441     Al  0.90682368  0.92373760  0.24667841     1.90100
O1442       O  0.83598380  0.89073111  0.27721171    -0.74600
O1443       O  0.79160598  0.94129997  0.20417518    -0.74400
O1444       O  0.79609295  0.93709673  0.28772114    -0.80100
O1445       O  0.82805356  0.97800370  0.18873161    -0.78300
O1446       O  0.86091031  0.94015326  0.24303415    -1.14400
O1447       O  0.90253112  0.98415688  0.20564207    -0.73600
C1448       C  0.92044135  0.96675598  0.18322917     0.97100
C1449       C  0.86595434  0.88548564  0.29774886     0.93500
Al1450     Al  0.81834596  0.91863606  0.24106513     1.55600
O1451       O  0.92978960  0.95186376  0.28507665    -0.78200
C1452       C  0.79719257  0.96360824  0.18376445     0.97700
C1453       C  0.86404519  0.88371322  0.19144445     0.92600
O1454       O  0.89369752  0.89150451  0.21203690    -0.83500
O1455       O  0.92903253  0.54774079  0.03146882    -0.83000
C1456       C  0.80132622  0.53310887  0.43416843     0.96300
O1457       O  0.83194046  0.52011366  0.44125514    -0.72100
O1458       O  0.90356636  0.51688897  0.46482669    -0.75700
Al1459     Al  0.85516530  0.52114196  0.99544814     1.49000
C1460       C  0.92040226  0.53229243  0.43793971     0.91600
O1461       O  0.89366472  0.61050814  0.46246849    -0.81900
O1462       O  0.83772687  0.60707285  0.02787076    -0.75500
Al1463     Al  0.90748179  0.57807275  0.49574045     1.90100
O1464       O  0.83457356  0.60016727  0.44368802    -0.74600
O1465       O  0.79728345  0.56161855  0.04090058    -0.74400
O1466       O  0.79319778  0.55490350  0.45481104    -0.80100
O1467       O  0.80706809  0.51811081  0.02311481    -0.78300
O1468       O  0.85946515  0.55893986  0.99402622    -1.14400
O1469       O  0.88038797  0.52044473  0.04976652    -0.73600
C1470       C  0.91421841  0.52960592  0.05657256     0.97100
C1471       C  0.86252267  0.61747234  0.44510302     0.93500
Al1472     Al  0.81785728  0.57877022  0.99244139     1.55600
O1473       O  0.92186860  0.55895147  0.44346155    -0.78200
C1474       C  0.78591795  0.53612092  0.03947186     0.97700
C1475       C  0.86790762  0.61339011  0.04821771     0.92600
O1476       O  0.89766097  0.59883926  0.04420804    -0.83500
C1477       C  0.98818908  0.97944675  0.40106121     0.85300
C1478       C  0.95873654  0.96394132  0.37107708    -0.55000
C1479       C  0.93678452  0.98186359  0.34659195     0.08200
C1480       C  0.94700923  0.51463933  0.35814306     0.19200
C1481       C  0.01070559  0.99911521  0.37102491    -0.55700
C1482       C  0.99010686  0.51755679  0.34662871     0.08300
C1483       C  0.96568216  0.99916882  0.42721461    -0.55200
C1484       C  0.94575748  0.51733455  0.40782135     0.08900
H1485       H  0.95820893  0.94107144  0.36657666     0.13400
H1486       H  0.92829310  0.52954478  0.34102484    -0.00900
H1487       H  0.04105976  0.99674688  0.36564631     0.13700
H1488       H  0.96738736  0.99878244  0.46123250     0.13500
O1489       O  0.00522512  0.93328107  0.04581327    -0.83000
C1490       C  0.13702865  0.95069906  0.44571578     0.96300
O1491       O  0.11675626  0.96818544  0.46444082    -0.72100
O1492       O  0.04485314  0.97097851  0.44219907    -0.75700
Al1493     Al  0.07326794  0.96643049  0.99478248     1.49000
C1494       C  0.01127570  0.96229230  0.43310770     0.91600
O1495       O  0.02164276  0.89274529  0.44459740    -0.81900
O1496       O  0.09012236  0.88750373  0.04210740    -0.75500
Al1497     Al  0.01618169  0.91479058  0.49416419     1.90100
O1498       O  0.08047445  0.87919913  0.45723301    -0.74600
O1499       O  0.13717630  0.92976811  0.02819777    -0.74400
O1500       O  0.12602651  0.92491173  0.44367697    -0.80100
O1501       O  0.10322694  0.96629577  0.04584556    -0.78300
O1502       O  0.06571424  0.92899184  0.99386369    -1.14400
O1503       O  0.02973711  0.97458992  0.02860447    -0.73600
C1504       C  0.00908925  0.95959306  0.05270099     0.97100
C1505       C  0.04811182  0.87545884  0.43959537     0.93500
Al1506     Al  0.10575755  0.90656093  0.99341530     1.55600
O1507       O  0.99484976  0.94410901  0.45692574    -0.78200
C1508       C  0.13379295  0.95244509  0.04861151     0.97700
C1509       C  0.05944030  0.87313124  0.04444054     0.92600
O1510       O  0.02907791  0.88138029  0.02671308    -0.83500
O1511       O  0.99025445  0.53866187  0.20711204    -0.83000
C1512       C  0.12385695  0.53272952  0.30106979     0.96300
O1513       O  0.09219631  0.51898125  0.29874193    -0.72100
O1514       O  0.01818137  0.51090442  0.27944677    -0.75700
Al1515     Al  0.06407898  0.51610184  0.24698872     1.49000
C1516       C  0.00388357  0.52825325  0.30493277     0.91600
O1517       O  0.03143392  0.60491089  0.26844434    -0.81900
O1518       O  0.08306523  0.59956396  0.19585862    -0.75500
Al1519     Al  0.01505275  0.56968751  0.24042344     1.90100
O1520       O  0.09276472  0.59949373  0.27980846    -0.74600
O1521       O  0.12181980  0.55230896  0.19117957    -0.74400
O1522       O  0.13131060  0.55331436  0.27693445    -0.80100
O1523       O  0.11186100  0.51110471  0.21928753    -0.78300
O1524       O  0.06111220  0.55378324  0.24151534    -1.14400
O1525       O  0.03851923  0.51110192  0.19437815    -0.73600
C1526       C  0.00695844  0.52138740  0.18287775     0.97100
C1527       C  0.06397627  0.61484131  0.28034075     0.93500
Al1528     Al  0.10364542  0.57435406  0.23623833     1.55600
O1529       O  0.00256222  0.55415722  0.29506138    -0.78200
C1530       C  0.13304163  0.52768486  0.19875521     0.97700
C1531       C  0.05047147  0.60361741  0.17962593     0.92600
O1532       O  0.02193396  0.58799217  0.18818429    -0.83500
C1533       C  0.10028256  0.72771070  0.34309169     0.85300
C1534       C  0.07189186  0.74873326  0.35948679    -0.55000
C1535       C  0.08744337  0.76813702  0.38664382     0.08200
C1536       C  0.13088119  0.76465586  0.39554818     0.19200
C1537       C  0.13237843  0.74784614  0.32404516    -0.55700
C1538       C  0.14868960  0.76740004  0.35261542     0.08300
C1539       C  0.11963494  0.71470321  0.38149673    -0.55200
C1540       C  0.13891929  0.73329490  0.40699603     0.08900
H1541       H  0.04330520  0.75083564  0.34603788     0.13400
H1542       H  0.14089236  0.78030508  0.41941105    -0.00900
H1543       H  0.14191304  0.74658708  0.29191474     0.13700
H1544       H  0.12536029  0.69209501  0.38257135     0.13500
C1545       C  0.09259447  0.71359672  0.12829040     0.85300
C1546       C  0.11443228  0.72764894  0.16712359    -0.55000
C1547       C  0.13506855  0.75211041  0.15747827     0.08200
C1548       C  0.13255995  0.75905752  0.11092549     0.19200
C1549       C  0.06863065  0.73715274  0.10920831    -0.55700
C1550       C  0.08974602  0.76075195  0.09963026     0.08300
C1551       C  0.12531762  0.70923164  0.09703243    -0.55200
C1552       C  0.14840258  0.73235640  0.09130698     0.08900
H1553       H  0.11702342  0.71745444  0.19745987     0.13400
H1554       H  0.14875341  0.77838202  0.10140752    -0.00900
H1555       H  0.03796600  0.73521256  0.10327505     0.13700
H1556       H  0.13429812  0.68860670  0.08651648     0.13500
C1557       C  0.98564212  0.97507245  0.08550192     0.85300
C1558       C  0.00964167  0.99515443  0.11456675    -0.55000
C1559       C  0.98978473  0.51180487  0.14128512     0.08200
C1560       C  0.94612044  0.50888643  0.13247886     0.19200
C1561       C  0.95930974  0.95876782  0.11669491    -0.55700
C1562       C  0.93885244  0.97637985  0.14285608     0.08300
C1563       C  0.95928870  0.99382030  0.06116283    -0.55200
C1564       C  0.93988201  0.51211153  0.08344500     0.08900
H1565       H  0.04049047  0.99333230  0.11785172     0.13400
H1566       H  0.92900932  0.52354869  0.15152955    -0.00900
H1567       H  0.95985130  0.93590331  0.12050493     0.13700
H1568       H  0.95657273  0.99260327  0.02731978     0.13500
O1569       O  0.42762345  0.80880662  0.28481920    -0.83000
C1570       C  0.28614012  0.79553950  0.19732713     0.96300
O1571       O  0.31557419  0.78109599  0.20360331    -0.72100
O1572       O  0.38979694  0.77244863  0.21798582    -0.75700
Al1573     Al  0.34788302  0.78668860  0.25234554     1.49000
C1574       C  0.41285444  0.78427190  0.19216442     0.91600
O1575       O  0.40128411  0.86440244  0.20106789    -0.81900
O1576       O  0.34913905  0.87901685  0.25814825    -0.75500
Al1577     Al  0.40850472  0.83493832  0.24195106     1.90100
O1578       O  0.34249441  0.85641515  0.17860101    -0.74600
O1579       O  0.29920337  0.84124545  0.28427650    -0.74400
O1580       O  0.28728975  0.82162535  0.20614819    -0.80100
O1581       O  0.30382382  0.79469187  0.28553419    -0.76300
O1582       O  0.35950692  0.82287599  0.24227936    -1.14400
O1583       O  0.37610640  0.78641434  0.30493982    -0.73600
C1584       C  0.41076416  0.79315237  0.31151100     0.97100
C1585       C  0.37396941  0.86996761  0.17601485     0.93500
Al1586     Al  0.32289176  0.84751187  0.23217207     1.55600
O1587       O  0.42021296  0.81056914  0.19524479    -0.78200
C1588       C  0.28744057  0.81722330  0.29643554     0.97700
C1589       C  0.37672513  0.88050917  0.28427746     0.92600
O1590       O  0.40096958  0.86110219  0.28686619    -0.83500
O1591       O  0.43576088  0.70931214  0.46139735    -0.83000
C1592       C  0.30342524  0.71620878  0.05782446     0.96300
O1593       O  0.33388070  0.73066942  0.05391298    -0.72100
O1594       O  0.40603298  0.73997855  0.03761153    -0.75700
Al1595     Al  0.36199372  0.73119734  0.50324219     1.49000
C1596       C  0.42432240  0.72332349  0.06161885     0.91600
O1597       O  0.40463501  0.64661151  0.03409133    -0.81900
O1598       O  0.34979007  0.64067693  0.47300710    -0.75500
Al1599     Al  0.41573052  0.67964891  0.49934499     1.90100
O1600       O  0.34685070  0.65535970  0.05450741    -0.74600
O1601       O  0.30640229  0.68397501  0.45579746    -0.74400
O1602       O  0.29789847  0.69337798  0.03770902    -0.80100
O1603       O  0.31381764  0.72938032  0.47172860    -0.78300
O1604       O  0.36887046  0.69381538  0.50228015    -1.14400
O1605       O  0.38592420  0.73572224  0.45107741    -0.73600
C1606       C  0.41748642  0.72689530  0.43887359     0.97100
C1607       C  0.37671322  0.64118895  0.05788871     0.93500
Al1608     Al  0.32913078  0.67039005  0.50555511     1.55600
O1609       O  0.42988217  0.69832655  0.04952974    -0.78200
C1610       C  0.29493818  0.70909996  0.45405555     0.97700
C1611       C  0.37807547  0.63913458  0.44921835     0.92600
O1612       O  0.40427209  0.65804859  0.44982387    -0.83500
C1613       C  0.33261868  0.53198562  0.38394382     0.85300
C1614       C  0.31130775  0.51867242  0.42199738    -0.55000
C1615       C  0.28867708  0.99369972  0.41094076     0.08200
C1616       C  0.29387258  0.98549571  0.36499875     0.19200
C1617       C  0.35683993  0.50833351  0.36681974    -0.55700
C1618       C  0.33722805  0.98369758  0.35870119     0.08300
C1619       C  0.30007238  0.53534545  0.35081180    -0.55200
C1620       C  0.27782677  0.51149532  0.34344479     0.08900
H1621       H  0.31093429  0.52883280  0.45261962     0.13400
H1622       H  0.27841679  0.96574126  0.35501421    -0.00900
H1623       H  0.38756413  0.51036955  0.36268168     0.13700
H1624       H  0.29014877  0.55574729  0.34045482     0.13500
C1625       C  0.33238901  0.53213675  0.12409748     0.85300
C1626       C  0.35876598  0.50660369  0.12183720    -0.55000
C1627       C  0.34179143  0.98130023  0.13250597     0.08200
C1628       C  0.29865632  0.98398086  0.14135320     0.19200
C1629       C  0.29846592  0.52407723  0.09376586    -0.55700
C1630       C  0.28117975  0.99850582  0.10282208     0.08300
C1631       C  0.31587506  0.53016554  0.16874771    -0.55200
C1632       C  0.29346611  0.50644054  0.17650579     0.08900
H1633       H  0.38851671  0.50743223  0.11321783     0.13400
H1634       H  0.28617470  0.96296135  0.14920466    -0.00900
H1635       H  0.28958463  0.53761843  0.06813622     0.13700
H1636       H  0.31807595  0.54834161  0.18927073     0.13500
C1637       C  0.43389532  0.77678542  0.34501008     0.85300
C1638       C  0.41086509  0.75595120  0.37312691    -0.55000
C1639       C  0.43296331  0.73892957  0.39874240     0.08200
C1640       C  0.47616410  0.74268781  0.39069230     0.19200
C1641       C  0.46118869  0.79247631  0.37731090    -0.55700
C1642       C  0.48253037  0.77457370  0.40290033     0.08300
C1643       C  0.45932631  0.75841820  0.32007192    -0.55200
C1644       C  0.48071709  0.74026972  0.34159862     0.08900
H1645       H  0.38008827  0.75731934  0.37639761     0.13400
H1646       H  0.49418306  0.72797606  0.40907860    -0.00900
H1647       H  0.46067494  0.81528311  0.38221879     0.13700
H1648       H  0.45989247  0.75936402  0.28615672     0.13500
C1649       C  0.59227495  0.52473639  0.36292573     0.85300
C1650       C  0.61204102  0.51615456  0.32109789    -0.55000
C1651       C  0.63168202  0.99104821  0.32588073     0.08200
C1652       C  0.62708647  0.97742439  0.36901866     0.19200
C1653       C  0.56948185  0.49856892  0.37622914    -0.55700
C1654       C  0.58393996  0.97227827  0.37524767     0.08300
C1655       C  0.62643245  0.52721657  0.39410686    -0.55200
C1656       C  0.64931784  0.50409263  0.39547479     0.08900
H1657       H  0.61279405  0.52977671  0.29373325     0.13400
H1658       H  0.64354998  0.95788526  0.37360893    -0.00900
H1659       H  0.53187349  0.99546014  0.37609299     0.13700
H1660       H  0.63635072  0.54755708  0.40685644     0.13500
O1661       O  0.49425504  0.69528402  0.31017462    -0.83000
C1662       C  0.63886356  0.69256782  0.23728791     0.96300
O1663       O  0.61419524  0.71082452  0.22823903    -0.72100
O1664       O  0.54421168  0.71859815  0.20315595    -0.75700
Al1665     Al  0.56957595  0.72034359  0.25755854     1.49000
C1666       C  0.50933878  0.71364186  0.19640039     0.91600
O1667       O  0.52825486  0.64729869  0.22055065    -0.81900
O1668       O  0.55874844  0.65038545  0.34034243    -0.75500
Al1669     Al  0.51054235  0.67159721  0.26424378     1.90100
O1670       O  0.57885681  0.63296219  0.25849741    -0.74600
O1671       O  0.61126931  0.69077810  0.33704617    -0.74400
O1672       O  0.63209357  0.67286071  0.26243412    -0.80100
O1673       O  0.60001454  0.73031913  0.30443165    -0.78300
O1674       O  0.55830699  0.68520548  0.27276564    -1.14400
O1675       O  0.52676154  0.73385567  0.28914131    -0.73600
C1676       C  0.50348758  0.72158399  0.31440642     0.97100
C1677       C  0.55641341  0.63075337  0.22631636     0.93500
Al1678     Al  0.59213596  0.66333151  0.29762063     1.55600
O1679       O  0.49190070  0.69826349  0.22249408    -0.78200
C1680       C  0.61934469  0.71661560  0.33031266     0.97700
C1681       C  0.53237141  0.63311494  0.33023233     0.92600
O1682       O  0.51120658  0.63921736  0.29980205    -0.83500
C1683       C  0.59280047  0.52703875  0.13778894     0.85300
C1684       C  0.56502150  0.50171578  0.13327820    -0.55000
C1685       C  0.57810296  0.97645428  0.11454759     0.08200
C1686       C  0.62053010  0.98091267  0.10210852     0.19200
C1687       C  0.62776613  0.51442434  0.16168964    -0.55700
C1688       C  0.64226410  0.98822300  0.14328979     0.08300
C1689       C  0.60762325  0.53285264  0.09337551    -0.55200
C1690       C  0.62673395  0.51118034  0.07469240     0.08900
H1691       H  0.53540341  0.99696138  0.14953455     0.13400
H1692       H  0.62979966  0.96213047  0.08476395    -0.00900
H1693       H  0.64053296  0.52422476  0.18976559     0.13700
H1694       H  0.60825316  0.55441135  0.08267202     0.13500
O1695       O  0.49433448  0.80887256  0.45810482    -0.83000
C1696       C  0.62712238  0.79834616  0.06051698     0.96300
O1697       O  0.60917475  0.77857878  0.04077015    -0.72100
O1698       O  0.53624085  0.76994695  0.05548864    -0.75700
Al1699     Al  0.56507975  0.77789401  0.50674449     1.49000
C1700       C  0.50491515  0.77934294  0.06801819     0.91600
O1701       O  0.51565513  0.84820229  0.05844478    -0.81900
O1702       O  0.57912209  0.85631435  0.46046723    -0.75500
Al1703     Al  0.50773376  0.82652085  0.00799054     1.90100
O1704       O  0.57121183  0.86670851  0.04121277    -0.74600
O1705       O  0.62896947  0.81858903  0.48006858    -0.74400
O1706       O  0.61622015  0.82369349  0.05876457    -0.80100
O1707       O  0.59760315  0.78030062  0.45887248    -0.78300
O1708       O  0.55611059  0.81501790  0.50943032    -1.14400
O1709       O  0.52281910  0.76850222  0.46614453    -0.73600
C1710       C  0.50125639  0.78442623  0.44436096     0.97100
C1711       C  0.54110948  0.86751045  0.06223912     0.93500
Al1712     Al  0.59511259  0.83996546  0.51121042     1.55600
O1713       O  0.48714388  0.79682691  0.04503749    -0.78200
C1714       C  0.62780505  0.79567639  0.45983005     0.97700
C1715       C  0.54763315  0.86830742  0.45577997     0.92600
O1716       O  0.51853408  0.86056657  0.47627850    -0.83500
C1717       C  0.48703810  0.73080544  0.16320214     0.85300
C1718       C  0.46136225  0.71501124  0.12980849    -0.55000
C1719       C  0.44061005  0.73285261  0.10376390     0.08200
C1720       C  0.44533975  0.76455407  0.11656285     0.19200
C1721       C  0.51054590  0.75213528  0.13615793    -0.55700
C1722       C  0.48890893  0.76871508  0.10940342     0.08300
C1723       C  0.45994288  0.74848226  0.18759414    -0.55200
C1724       C  0.43801790  0.76614144  0.16559651     0.08900
H1725       H  0.46281383  0.69228954  0.12443290     0.13400
H1726       H  0.42747505  0.77903196  0.09757971    -0.00900
H1727       H  0.54138273  0.75079601  0.13353874     0.13700
H1728       H  0.45816093  0.74702794  0.22135563     0.13500
C1729       C  0.53561129  0.89302441  0.08796064    -0.07300
C1730       C  0.56007408  0.89771309  0.12284222    -0.18500
C1731       C  0.56936967  0.92537645  0.13650696     0.09900
C1732       C  0.55792030  0.94848646  0.11167111    -0.07300
C1733       C  0.52950597  0.94396994  0.08059220    -0.18500
C1734       C  0.51689009  0.91635499  0.06996542     0.09900
S1735       S  0.59505370  0.92996057  0.18583706    -0.33500
S1736       S  0.48079624  0.91362069  0.53174230    -0.33500
H1737       H  0.46607326  0.88767486  0.54692346     0.27900
H1738       H  0.58160778  0.95719511  0.19448071     0.27900
H1739       H  0.57335319  0.87989302  0.13816476     0.18500
H1740       H  0.51848299  0.96181908  0.06325606     0.18500
C1741       C  0.57935549  0.55489587  0.15732125    -0.07300
C1742       C  0.60871414  0.57494104  0.16742249    -0.18500
C1743       C  0.60131487  0.60085558  0.18607103     0.09900
C1744       C  0.56362610  0.60741610  0.19661669    -0.07300
C1745       C  0.53357043  0.58933060  0.18262353    -0.18500
C1746       C  0.54075293  0.56368710  0.16173032     0.09900
S1747       S  0.64119206  0.62532764  0.19350720    -0.33500
S1748       S  0.49933106  0.54606662  0.13803344    -0.33500
H1749       H  0.51761804  0.54056413  0.09996150     0.27900
H1750       H  0.61947812  0.64893563  0.18224933     0.27900
H1751       H  0.63814640  0.57055938  0.16005817     0.18500
H1752       H  0.50428522  0.59520070  0.18800898     0.18500
C1753       C  0.56745578  0.55107713  0.36099915    -0.07300
C1754       C  0.54371717  0.55484135  0.32551791    -0.18500
C1755       C  0.52441869  0.58018484  0.31942096     0.09900
C1756       C  0.53276905  0.60365682  0.34642087    -0.07300
C1757       C  0.55131653  0.59851439  0.38484341    -0.18500
C1758       C  0.56545482  0.57166696  0.39388127     0.09900
S1759       S  0.48989923  0.58108894  0.27682052    -0.33500
S1760       S  0.57532717  0.56452780  0.44855524    -0.33500
H1761       H  0.56540045  0.53546410  0.44585045     0.27900
H1762       H  0.46426778  0.59794765  0.29893483     0.27900
H1763       H  0.54020823  0.53796694  0.30237318     0.18500
H1764       H  0.55474942  0.61547263  0.40788202     0.18500
C1765       C  0.54792834  0.89499462  0.43290275    -0.07300
C1766       C  0.55470790  0.91948124  0.45721677    -0.18500
C1767       C  0.56500485  0.94516829  0.43870954     0.09900
C1768       C  0.56862781  0.94633751  0.39478321    -0.07300
C1769       C  0.56044844  0.92208567  0.37002605    -0.18500
C1770       C  0.55017134  0.89618700  0.38891901     0.09900
S1771       S  0.57550599  0.97584420  0.47178906    -0.33500
S1772       S  0.54131661  0.86460812  0.35747281    -0.33500
H1773       H  0.54372131  0.87802740  0.31822638     0.27900
H1774       H  0.57899119  0.96111007  0.50989817     0.27900
H1775       H  0.55437309  0.91800793  0.49109472     0.18500
H1776       H  0.56328083  0.92329333  0.33629045     0.18500
C1777       C  0.38092933  0.61325414  0.42413161    -0.07300
C1778       C  0.39132827  0.58868029  0.44559751    -0.18500
C1779       C  0.37977681  0.56167564  0.43070510     0.09900
C1780       C  0.35567001  0.55941211  0.39445091    -0.07300
C1781       C  0.35178122  0.58395276  0.36937930    -0.18500
C1782       C  0.36332237  0.61081907  0.38432960     0.09900
S1783       S  0.39437216  0.53075262  0.45969691    -0.33500
S1784       S  0.35130536  0.64135331  0.35326408    -0.33500
H1785       H  0.37870311  0.66011955  0.37184354     0.27900
H1786       H  0.42025374  0.54498212  0.48748005     0.27900
H1787       H  0.40568922  0.59081818  0.47590582     0.18500
H1788       H  0.33873735  0.58286179  0.33841309     0.18500
C1789       C  0.37474265  0.61610835  0.08602097    -0.07300
C1790       C  0.34110638  0.61297628  0.10898141    -0.18500
C1791       C  0.32678532  0.58643075  0.12064148     0.09900
C1792       C  0.34908825  0.56191791  0.11454256    -0.07300
C1793       C  0.38594023  0.56596830  0.09739940    -0.18500
C1794       C  0.39881728  0.59263719  0.08302865     0.09900
S1795       S  0.27842245  0.58498488  0.14017728    -0.33500
S1796       S  0.44559489  0.59502681  0.06037292    -0.33500
H1797       H  0.45449819  0.62198643  0.07780506     0.27900
H1798       H  0.26787107  0.61284073  0.13051007     0.27900
H1799       H  0.32359913  0.63125623  0.11405284     0.18500
H1800       H  0.40463740  0.54846250  0.09283447     0.18500
C1801       C  0.35494963  0.95768948  0.34344181    -0.07300
C1802       C  0.34749578  0.93229988  0.36483105    -0.18500
C1803       C  0.35940608  0.90637809  0.34890476     0.09900
C1804       C  0.37924343  0.90585354  0.31084000    -0.07300
C1805       C  0.38932085  0.93147472  0.29118930    -0.18500
C1806       C  0.37699453  0.95739004  0.30685556     0.09900
S1807       S  0.34460861  0.87445253  0.37576368    -0.33500
S1808       S  0.38657069  0.98886993  0.27652303    -0.33500
H1809       H  0.34156341  0.49854605  0.27765515     0.27900
H1810       H  0.37456939  0.85774388  0.36160799     0.27900
H1811       H  0.33111118  0.93255975  0.39333779     0.18500
H1812       H  0.40349708  0.93104297  0.26123342     0.18500
C1813       C  0.36033503  0.95316106  0.13185544    -0.07300
C1814       C  0.34123645  0.93082898  0.11017349    -0.18500
C1815       C  0.34828284  0.90243509  0.11972486     0.09900
C1816       C  0.37607010  0.89635154  0.15087294    -0.07300
C1817       C  0.40051023  0.91857764  0.16586203    -0.18500
C1818       C  0.39287930  0.94702158  0.15677809     0.09900
S1819       S  0.32036205  0.87445642  0.09361482    -0.33500
S1820       S  0.42317141  0.97486825  0.17965780    -0.33500
H1821       H  0.45039485  0.95721919  0.19845859     0.27900
H1822       H  0.29956445  0.89197449  0.06631488     0.27900
H1823       H  0.31947834  0.93575152  0.08717679     0.18500
H1824       H  0.42317574  0.91397689  0.18824766     0.18500
C1825       C  0.16930868  0.76432395  0.18067553    -0.07300
C1826       C  0.19737937  0.74591267  0.19560069    -0.18500
C1827       C  0.23638991  0.75448396  0.19848528     0.09900
C1828       C  0.24779002  0.78236104  0.18625395    -0.07300
C1829       C  0.21909044  0.80082395  0.17288714    -0.18500
C1830       C  0.18035447  0.79282014  0.17299505     0.09900
S1831       S  0.27077714  0.72922082  0.21698226    -0.33500
S1832       S  0.14596267  0.81994206  0.16191693    -0.33500
H1833       H  0.11416746  0.80464438  0.17733728     0.27900
H1834       H  0.24431399  0.70775892  0.22837532     0.27900
H1835       H  0.18907031  0.72424055  0.20250025     0.18500
H1836       H  0.22661707  0.82253054  0.16472420     0.18500
C1837       C  0.27073463  0.72673742  0.08054046    -0.07300
C1838       C  0.25117271  0.70678263  0.10476900    -0.18500
C1839       C  0.21167936  0.70783279  0.10969723     0.09900
C1840       C  0.19086584  0.72958562  0.08897012    -0.07300
C1841       C  0.21153485  0.75138198  0.06891093    -0.18500
C1842       C  0.25131182  0.75042524  0.06504591     0.09900
S1843       S  0.19006858  0.68064326  0.14229258    -0.33500
S1844       S  0.27829646  0.77927388  0.53825067    -0.33500
H1845       H  0.24680556  0.79671298  0.53094832     0.27900
H1846       H  0.22384405  0.67215818  0.16289180     0.27900
H1847       H  0.26652911  0.68868418  0.11653673     0.18500
H1848       H  0.19629645  0.76864662  0.05464790     0.18500
C1849       C  0.25552503  0.71360759  0.43958302    -0.07300
C1850       C  0.22642845  0.70959670  0.46910768    -0.18500
C1851       C  0.18800029  0.71411666  0.45861815     0.09900
C1852       C  0.17843943  0.72414588  0.41853216    -0.07300
C1853       C  0.20715052  0.72465689  0.38768584    -0.18500
C1854       C  0.24565741  0.72038106  0.39800596     0.09900
S1855       S  0.15234091  0.70485317  0.49634203    -0.33500
S1856       S  0.28047266  0.72530667  0.35728008    -0.33500
H1857       H  0.31061620  0.71069261  0.37639692     0.27900
H1858       H  0.12201178  0.69918607  0.46769348     0.27900
H1859       H  0.23357914  0.70254705  0.50051649     0.18500
H1860       H  0.20006641  0.72922428  0.35534971     0.18500
C1861       C  0.18278941  0.78677544  0.34430045    -0.07300
C1862       C  0.18439774  0.80017606  0.30512317    -0.18500
C1863       C  0.21636026  0.81667340  0.29420298     0.09900
C1864       C  0.25062563  0.81446703  0.31769246    -0.07300
C1865       C  0.24920536  0.80275602  0.35756758    -0.18500
C1866       C  0.21452812  0.79191074  0.37314264     0.09900
S1867       S  0.21125569  0.84148875  0.25203057    -0.33500
S1868       S  0.21326051  0.78643114  0.42934632    -0.33500
H1869       H  0.25085055  0.79578908  0.43962069     0.27900
H1870       H  0.23482886  0.86267003  0.27119535     0.27900
H1871       H  0.16025010  0.79871995  0.28339177     0.18500
H1872       H  0.27527421  0.80243811  0.37649952     0.18500
C1873       C  0.23557028  0.51437163  0.33651258    -0.07300
C1874       C  0.21750189  0.53766129  0.35516547    -0.18500
C1875       C  0.17843964  0.54185581  0.34995038     0.09900
C1876       C  0.15614406  0.52241276  0.32586699    -0.07300
C1877       C  0.17282958  0.49758463  0.31101052    -0.18500
C1878       C  0.21233926  0.49360974  0.31523956     0.09900
S1879       S  0.15895430  0.57375560  0.37162722    -0.33500
S1880       S  0.23619574  0.96544821  0.28224996    -0.33500
H1881       H  0.27187689  0.97896162  0.27539770     0.27900
H1882       H  0.12056211  0.56395275  0.37043835     0.27900
H1883       H  0.23382336  0.55319475  0.37370893     0.18500
H1884       H  0.15591521  0.48293308  0.29136396     0.18500
C1885       C  0.17401528  0.52077337  0.19400006    -0.07300
C1886       C  0.20143918  0.54132118  0.20775315    -0.18500
C1887       C  0.24036183  0.53515841  0.21185936     0.09900
C1888       C  0.25390850  0.50920288  0.19573370    -0.07300
C1889       C  0.22575445  0.48750995  0.18785638    -0.18500
C1890       C  0.18642374  0.49293031  0.18707497     0.09900
S1891       S  0.26874296  0.55869443  0.24549332    -0.33500
S1892       S  0.15237210  0.96455609  0.17261681    -0.33500
H1893       H  0.12556067  0.98086302  0.15054213     0.27900
H1894       H  0.29516593  0.53791210  0.25687759     0.27900
H1895       H  0.19211592  0.56169073  0.21908352     0.18500
H1896       H  0.23239311  0.96691174  0.17656849     0.18500
C1897       C  0.04525563  0.63060483  0.15800411    -0.07300
C1898       C  0.03614277  0.65388667  0.18337330    -0.18500
C1899       C  0.04778176  0.68164602  0.17279479     0.09900
C1900       C  0.06951703  0.68595699  0.13626034    -0.07300
C1901       C  0.07053209  0.66314511  0.10697988    -0.18500
C1902       C  0.05995388  0.63547042  0.11813146     0.09900
S1903       S  0.03536779  0.71085654  0.20655543    -0.33500
S1904       S  0.06800626  0.60697503  0.08156635    -0.33500
H1905       H  0.04222264  0.58741202  0.09974448     0.27900
H1906       H  0.01379357  0.69484528  0.23526704     0.27900
H1907       H  0.02305676  0.65001553  0.21339473     0.18500
H1908       H  0.08101120  0.66631031  0.07561304     0.18500
C1909       C  0.08264861  0.70279965  0.31741092    -0.07300
C1910       C  0.10580099  0.69028728  0.28732875    -0.18500
C1911       C  0.09998711  0.66207098  0.27425680     0.09900
C1912       C  0.06959419  0.64539903  0.29107678    -0.07300
C1913       C  0.04408165  0.65831352  0.31775109    -0.18500
C1914       C  0.05053248  0.68631045  0.33212812     0.09900
S1915       S  0.13256141  0.64806684  0.23638555    -0.33500
S1916       S  0.01951312  0.69844049  0.37307969    -0.33500
H1917       H  0.99038828  0.67747999  0.36780328     0.27900
H1918       H  0.15317599  0.67337894  0.22819630     0.27900
H1919       H  0.13082075  0.70166028  0.27649414     0.18500
H1920       H  0.02053384  0.64561106  0.32979648     0.18500
C1921       C  0.24306675  0.98836806  0.08552705    -0.07300
C1922       C  0.23652942  0.95888905  0.08398998    -0.18500
C1923       C  0.20017586  0.94683478  0.07799533     0.09900
C1924       C  0.16892671  0.96438078  0.06905421    -0.07300
C1925       C  0.17489098  0.99392974  0.07001749    -0.18500
C1926       C  0.21125178  0.00618151  0.07923346     0.09900
S1927       S  0.19577618  0.90875461  0.08370804    -0.33500
S1928       S  0.21394714  0.54513722  0.08377747    -0.33500
H1929       H  0.17465444  0.55033757  0.08720791     0.27900
H1930       H  0.15846250  0.90904761  0.09955074     0.27900
H1931       H  0.25957067  0.94468868  0.08985963     0.18500
H1932       H  0.15112402  0.00743125  0.06262335     0.18500
C1933       C  0.25357621  0.98211740  0.43166375    -0.07300
C1934       C  0.24428368  0.95316864  0.42437494    -0.18500
C1935       C  0.20643961  0.94255535  0.42474621     0.09900
C1936       C  0.17657009  0.96081794  0.43512980    -0.07300
C1937       C  0.18646073  0.98935543  0.44540085    -0.18500
C1938       C  0.22423720  0.99995710  0.44505661     0.09900
S1939       S  0.19851323  0.90592451  0.40977124    -0.33500
S1940       S  0.23513021  0.53695794  0.46231308    -0.33500
H1941       H  0.20021422  0.54069828  0.48265807     0.27900
H1942       H  0.16721762  0.91163606  0.38290797     0.27900
H1943       H  0.26645619  0.93901754  0.41475724     0.18500
H1944       H  0.16439287  0.00368434  0.45461596     0.18500
C1945       C  0.04158118  0.84867891  0.41681965    -0.07300
C1946       C  0.06078405  0.84532528  0.37925337    -0.18500
C1947       C  0.07202135  0.81853150  0.36630123     0.09900
C1948       C  0.06786225  0.79516877  0.39377810    -0.07300
C1949       C  0.04487593  0.79792328  0.42894471    -0.18500
C1950       C  0.02992202  0.82426907  0.43932714     0.09900
S1951       S  0.09121158  0.81594886  0.31461964    -0.33500
S1952       S  0.99748034  0.82575727  0.48245553    -0.33500
H1953       H  0.97887477  0.85006215  0.46810269     0.27900
H1954       H  0.07101673  0.79071121  0.30389834     0.27900
H1955       H  0.06873239  0.86383815  0.36101597     0.18500
H1956       H  0.03896574  0.77967055  0.44855893     0.18500
C1957       C  0.06213578  0.84367114  0.05885331    -0.07300
C1958       C  0.08585198  0.82653439  0.03506020    -0.18500
C1959       C  0.09094261  0.79823339  0.04484071     0.09900
C1960       C  0.07419582  0.78682212  0.08101384    -0.07300
C1961       C  0.04842735  0.80325195  0.10364768    -0.18500
C1962       C  0.04165683  0.83159055  0.09238662     0.09900
S1963       S  0.11883105  0.77756615  0.00957105    -0.33500
S1964       S  0.00820500  0.85125968  0.12279904    -0.33500
H1965       H  0.02253726  0.87855068  0.11328143     0.27900
H1966       H  0.09775068  0.75226125  0.01657576     0.27900
H1967       H  0.10010790  0.83514744  0.00784327     0.18500
H1968       H  0.03519501  0.79452112  0.13138961     0.18500
C1969       C  0.77061330  0.52143095  0.40727742    -0.07300
C1970       C  0.75615603  0.49446108  0.41794261    -0.18500
C1971       C  0.71677075  0.48825733  0.41538743     0.09900
C1972       C  0.69165114  0.50889496  0.39955374    -0.07300
C1973       C  0.70759061  0.53428423  0.38340964    -0.18500
C1974       C  0.74640585  0.54073933  0.38720639     0.09900
S1975       S  0.69189311  0.95371791  0.44284806    -0.33500
S1976       S  0.76270789  0.57571869  0.37118697    -0.33500
H1977       H  0.80165340  0.56900027  0.36925231     0.27900
H1978       H  0.65641337  0.96333271  0.45617817     0.27900
H1979       H  0.77459277  0.47976968  0.43416964     0.18500
H1980       H  0.68975689  0.54971051  0.36806380     0.18500
C1981       C  0.66448252  0.51729274  0.05255858    -0.07300
C1982       C  0.69079997  0.49515338  0.04899848    -0.18500
C1983       C  0.73040656  0.50037682  0.04750654     0.09900
C1984       C  0.74505476  0.52865812  0.04786694    -0.07300
C1985       C  0.71860797  0.55062682  0.04522796    -0.18500
C1986       C  0.67888784  0.54515521  0.04443292     0.09900
S1987       S  0.76020472  0.46968316  0.04552201    -0.33500
S1988       S  0.64857768  0.57244751  0.02351723    -0.33500
H1989       H  0.67657014  0.59435634  0.02130653     0.27900
H1990       H  0.79018167  0.47992577  0.56793977     0.27900
H1991       H  0.68126745  0.97155800  0.05384747     0.18500
H1992       H  0.72905663  0.57213421  0.04023313     0.18500
C1993       C  0.74692525  0.97151145  0.29493626    -0.07300
C1994       C  0.71804025  0.95007606  0.29527171    -0.18500
C1995       C  0.67910472  0.95640311  0.29803141     0.09900
C1996       C  0.66774836  0.98479245  0.30285062    -0.07300
C1997       C  0.69586788  0.00638917  0.29843325    -0.18500
C1998       C  0.73497052  0.00016335  0.29483320     0.09900
S1999       S  0.64477394  0.92717917  0.29516263    -0.33500
S2000       S  0.76650884  0.53266711  0.28286852    -0.33500
H2001       H  0.79391226  0.01917689  0.32144752     0.27900
H2002       H  0.61335686  0.94373072  0.28361752     0.27900
H2003       H  0.72559071  0.92801787  0.29213456     0.18500
H2004       H  0.68673118  0.52987014  0.29401103     0.18500
C2005       C  0.76366780  0.97300416  0.15905956    -0.07300
C2006       C  0.73861936  0.95119275  0.14441179    -0.18500
C2007       C  0.69924427  0.95503520  0.13977658     0.09900
C2008       C  0.68390844  0.98187014  0.14927445    -0.07300
C2009       C  0.70980764  0.00450435  0.15960678    -0.18500
C2010       C  0.74927714  0.00043657  0.16393087     0.09900
S2011       S  0.66997211  0.92437139  0.12475040    -0.33500
S2012       S  0.77947139  0.03071339  0.17760958    -0.33500
H2013       H  0.80930220  0.02264295  0.15135833     0.27900
H2014       H  0.69953058  0.90744217  0.11000195     0.27900
H2015       H  0.74970151  0.93010042  0.14034554     0.18500
H2016       H  0.69944155  0.02577464  0.16382890     0.18500
C2017       C  0.73747463  0.73623698  0.35420031    -0.07300
C2018       C  0.71626417  0.75388156  0.32788255    -0.18500
C2019       C  0.67634938  0.75087132  0.32351992     0.09900
C2020       C  0.65658577  0.72903121  0.34579222    -0.07300
C2021       C  0.67723980  0.71307018  0.37472197    -0.18500
C2022       C  0.71703736  0.71588896  0.37892921     0.09900
S2023       S  0.65213800  0.77482694  0.28821995    -0.33500
S2024       S  0.73951630  0.69153833  0.41460305    -0.33500
H2025       H  0.70722089  0.68477856  0.43864584     0.27900
H2026       H  0.68474403  0.78906379  0.27272415     0.27900
H2027       H  0.73130527  0.77007445  0.31022567     0.18500
H2028       H  0.66241241  0.69640668  0.39170522     0.18500
C2029       C  0.74494444  0.77893723  0.43846355    -0.07300
C2030       C  0.72111436  0.75802593  0.45641659    -0.18500
C2031       C  0.68144230  0.76118992  0.45831318     0.09900
C2032       C  0.66484638  0.78645544  0.44370323    -0.07300
C2033       C  0.68910499  0.80789689  0.42770527    -0.18500
C2034       C  0.72870573  0.80477163  0.42617556     0.09900
S2035       S  0.65405919  0.73286307  0.48197891    -0.33500
S2036       S  0.75742761  0.83542461  0.41164848    -0.33500
H2037       H  0.79135847  0.82668581  0.43165842     0.27900
H2038       H  0.62567434  0.73223802  0.45002459     0.27900
H2039       H  0.73317223  0.73850847  0.46757597     0.18500
H2040       H  0.67736306  0.82822193  0.41932389     0.18500
C2041       C  0.85052031  0.80370018  0.35233391    -0.07300
C2042       C  0.86947843  0.82504529  0.37662769    -0.18500
C2043       C  0.87737512  0.85204339  0.35968978     0.09900
C2044       C  0.86645753  0.85732121  0.31765075    -0.07300
C2045       C  0.85088071  0.83489216  0.29278079    -0.18500
C2046       C  0.84251002  0.80835174  0.30967267     0.09900
S2047       S  0.89888281  0.87898415  0.39364781    -0.33500
S2048       S  0.82071750  0.78071341  0.27674604    -0.33500
H2049       H  0.81081969  0.79826878  0.24289689     0.27900
H2050       H  0.87909642  0.90184214  0.37626182     0.27900
H2051       H  0.87575876  0.82128094  0.40955753     0.18500
H2052       H  0.84361964  0.83860880  0.26009949     0.18500
C2053       C  0.85077753  0.70772091  0.42732046    -0.07300
C2054       C  0.82891180  0.69218025  0.45621847    -0.18500
C2055       C  0.82831264  0.66285222  0.45680181     0.09900
C2056       C  0.85652228  0.64772518  0.43552422    -0.07300
C2057       C  0.88261756  0.66305136  0.41106602    -0.18500
C2058       C  0.87817988  0.69236206  0.40395413     0.09900
S2059       S  0.78710216  0.64703282  0.48142748    -0.33500
S2060       S  0.90578126  0.70856481  0.36270180    -0.33500
H2061       H  0.91920529  0.68334870  0.34500525     0.27900
H2062       H  0.77601329  0.63119027  0.44538614     0.27900
H2063       H  0.80662530  0.70189812  0.47367379     0.18500
H2064       H  0.90487669  0.65167879  0.39544696     0.18500
C2065       C  0.73734221  0.77086157  0.10128410    -0.07300
C2066       C  0.70670713  0.77097636  0.12973640    -0.18500
C2067       C  0.67051900  0.78065854  0.11834630     0.09900
C2068       C  0.66509081  0.79227603  0.07833107    -0.07300
C2069       C  0.69656737  0.79525908  0.05159684    -0.18500
C2070       C  0.73266505  0.78500023  0.06279961     0.09900
S2071       S  0.63249551  0.77640858  0.15563703    -0.33500
S2072       S  0.77174809  0.79246754  0.02808147    -0.33500
H2073       H  0.80203341  0.78932559  0.05707047     0.27900
H2074       H  0.60674884  0.79525448  0.13710756     0.27900
H2075       H  0.71023434  0.76262200  0.16097343     0.18500
H2076       H  0.69285299  0.80523977  0.02131103     0.18500
C2077       C  0.67720939  0.69545773  0.22037277    -0.07300
C2078       C  0.68064213  0.70120798  0.17808754    -0.18500
C2079       C  0.71632365  0.70780352  0.16180211     0.09900
C2080       C  0.74711040  0.71612890  0.19010340    -0.07300
C2081       C  0.74419238  0.70818460  0.23217472    -0.18500
C2082       C  0.71044832  0.69529615  0.24635448     0.09900
S2083       S  0.72060865  0.70223341  0.10599494    -0.33500
S2084       S  0.71248738  0.67676756  0.29538199    -0.33500
H2085       H  0.69521141  0.65171123  0.27878340     0.27900
H2086       H  0.68516530  0.68810397  0.09834615     0.27900
H2087       H  0.65559858  0.69903057  0.15758565     0.18500
H2088       H  0.76886049  0.71045612  0.25322400     0.18500
C2089       C  0.86253856  0.85553346  0.17024297    -0.07300
C2090       C  0.88790474  0.83467837  0.18451361    -0.18500
C2091       C  0.87931215  0.80560634  0.17890793     0.09900
C2092       C  0.84491722  0.79709242  0.15792535    -0.07300
C2093       C  0.82187889  0.81803525  0.14003103    -0.18500
C2094       C  0.83079947  0.84687838  0.14479982     0.09900
S2095       S  0.91156402  0.78080111  0.20261999    -0.33500
S2096       S  0.79986728  0.87143771  0.11832123    -0.33500
H2097       H  0.82854678  0.89263764  0.11349318     0.27900
H2098       H  0.88339118  0.76029435  0.21278523     0.27900
H2099       H  0.91273262  0.84082882  0.20370059     0.18500
H2100       H  0.79614581  0.81207041  0.12247861     0.18500
C2101       C  0.84104164  0.69506002  0.09438831    -0.07300
C2102       C  0.81669620  0.67075008  0.09626958    -0.18500
C2103       C  0.83036600  0.64357889  0.09290210     0.09900
C2104       C  0.86564635  0.63943138  0.07397680    -0.07300
C2105       C  0.88898479  0.66352232  0.06535943    -0.18500
C2106       C  0.87764172  0.69135331  0.07661495     0.09900
S2107       S  0.80074753  0.61388603  0.11003448    -0.33500
S2108       S  0.90669998  0.72141674  0.06071747    -0.33500
H2109       H  0.93440408  0.70609138  0.03931991     0.27900
H2110       H  0.77616981  0.62982887  0.13491378     0.27900
H2111       H  0.78735876  0.67271084  0.10544614     0.18500
H2112       H  0.91474861  0.66064512  0.04766257     0.18500
C2113       C  0.82709659  0.72433965  0.61558210     0.85300
C2114       C  0.79439051  0.74012457  0.59131053    -0.55000
C2115       C  0.77400362  0.75854661  0.61592924     0.08200
C2116       C  0.78816669  0.75927089  0.66109326     0.19200
C2117       C  0.85173818  0.74902223  0.63419295    -0.55700
C2118       C  0.83112186  0.76773938  0.65741968     0.08300
C2119       C  0.80821600  0.71130057  0.65466514    -0.55200
C2120       C  0.78451808  0.72818570  0.67497269     0.08900
H2121       H  0.78677988  0.73571417  0.55864800     0.13400
H2122       H  0.77280447  0.77388037  0.68204014    -0.00900
H2123       H  0.88070989  0.75420061  0.62550923     0.13700
H2124       H  0.80785116  0.68865329  0.66126821     0.13500
C2125       C  0.83217338  0.73319839  0.90986362     0.85300
C2126       C  0.85676630  0.75751250  0.89248339    -0.55000
C2127       C  0.83558226  0.77738468  0.87243379     0.08200
C2128       C  0.79166495  0.77162957  0.87316705     0.19200
C2129       C  0.80385416  0.74912638  0.93926874    -0.55700
C2130       C  0.78198463  0.76888209  0.91923259     0.08300
C2131       C  0.80721745  0.72249852  0.87219948    -0.55200
C2132       C  0.78229737  0.74145913  0.85675536     0.08900
H2133       H  0.88766176  0.75934630  0.89610660     0.13400
H2134       H  0.77553948  0.78805487  0.85616198    -0.00900
H2135       H  0.79928251  0.74466039  0.97207647     0.13700
H2136       H  0.80497113  0.70018844  0.86342670     0.13500
O2137       O  0.92420458  0.94240115  0.69700640    -0.83000
C2138       C  0.78969052  0.96469511  0.78878415     0.96300
O2139       O  0.81249582  0.98233707  0.77218641    -0.72100
O2140       O  0.88766188  0.98482124  0.79532947    -0.75700
Al2141     Al  0.85968396  0.97932968  0.74244299     1.49000
C2142       C  0.91769046  0.97280748  0.80826783     0.91600
O2143       O  0.89737894  0.90222864  0.79801373    -0.81900
O2144       O  0.83371981  0.89854556  0.69842103    -0.75500
Al2145     Al  0.90817394  0.92457191  0.74851315     1.90100
O2146       O  0.83745192  0.89214771  0.78162768    -0.74600
O2147       O  0.79290370  0.94265175  0.70842740    -0.74400
O2148       O  0.79958033  0.93921086  0.79241100    -0.80100
O2149       O  0.82995884  0.97855106  0.69065754    -0.78300
O2150       O  0.86250729  0.94118118  0.74573216    -1.14400
O2151       O  0.90430112  0.98517368  0.70778599    -0.73600
C2152       C  0.92108941  0.96763433  0.68462459     0.97100
C2153       C  0.86782918  0.88628362  0.80092229     0.93500
Al2154     Al  0.81974792  0.92004309  0.74545791     1.55600
O2155       O  0.93133438  0.95273559  0.78678596    -0.78200
C2156       C  0.79894317  0.96422552  0.68641419     0.97700
C2157       C  0.86380360  0.88467960  0.69476255     0.92600
O2158       O  0.89416969  0.89259869  0.71393546    -0.83500
O2159       O  0.93023214  0.54975155  0.53323377    -0.83000
C2160       C  0.79762511  0.53135780  0.93645547     0.96300
O2161       O  0.82829365  0.51834820  0.94306032    -0.72100
O2162       O  0.90064808  0.51493970  0.96417558    -0.75700
Al2163     Al  0.85758754  0.52252353  0.49464047     1.49000
C2164       C  0.91763479  0.53014284  0.93702150     0.91600
O2165       O  0.89204282  0.60867733  0.96148779    -0.81900
O2166       O  0.83800678  0.60807623  0.52712797    -0.75500
Al2167     Al  0.90591663  0.57611824  0.99436460     1.90100
O2168       O  0.83231277  0.59930703  0.94425331    -0.74600
O2169       O  0.79844375  0.56214185  0.53951913    -0.74400
O2170       O  0.79033457  0.55379601  0.95617423    -0.80100
O2171       O  0.80902627  0.51887958  0.52097777    -0.78300
O2172       O  0.86140872  0.56035147  0.49406588    -1.14400
O2173       O  0.88179400  0.52151964  0.54947191    -0.73600
C2174       C  0.91536643  0.53096079  0.55725892     0.97100
C2175       C  0.86073365  0.61623313  0.94515901     0.93500
Al2176     Al  0.81952977  0.57968665  0.49158007     1.55600
O2177       O  0.91893053  0.55682721  0.94193503    -0.78200
C2178       C  0.78746069  0.53654867  0.53742197     0.97700
C2179       C  0.86724506  0.61502998  0.54854929     0.92600
O2180       O  0.89757381  0.60089145  0.54563028    -0.83500
C2181       C  0.98990017  0.97960167  0.90212031     0.85300
C2182       C  0.95994077  0.96436822  0.87260490    -0.55000
C2183       C  0.93807893  0.98250634  0.84850671     0.08200
C2184       C  0.94574352  0.51266654  0.85765033     0.19200
C2185       C  0.01235457  0.99911357  0.87185192    -0.55700
C2186       C  0.98906546  0.51576077  0.84680018     0.08300
C2187       C  0.96802924  0.99945367  0.92880334    -0.55200
C2188       C  0.94345432  0.51516057  0.90731232     0.08900
H2189       H  0.95917574  0.94151328  0.86786769     0.13400
H2190       H  0.92716629  0.52750370  0.84021328    -0.00900
H2191       H  0.04256499  0.99643787  0.86595806     0.13700
H2192       H  0.97031119  0.99902786  0.96272334     0.13500
O2193       O  0.00418973  0.93384843  0.54630247    -0.83000
C2194       C  0.13894840  0.94940762  0.94588516     0.96300
O2195       O  0.11854278  0.96716184  0.96394831    -0.72100
O2196       O  0.04672344  0.97040545  0.94230755    -0.75700
Al2197     Al  0.07128729  0.96695258  0.49479100     1.49000
C2198       C  0.01299034  0.96208180  0.93347128     0.91600
O2199       O  0.02388273  0.89286499  0.94365012    -0.81900
O2200       O  0.08989603  0.88789276  0.54087608    -0.75500
Al2201     Al  0.01765607  0.91443824  0.99363219     1.90100
O2202       O  0.08206241  0.87858430  0.95825281    -0.74600
O2203       O  0.13568798  0.93050969  0.52733055    -0.74400
O2204       O  0.12826392  0.92354999  0.94492994    -0.80100
O2205       O  0.10063703  0.96631101  0.54607419    -0.78300
O2206       O  0.06404553  0.92947726  0.49356498    -1.14400
O2207       O  0.02781338  0.97513158  0.52820447    -0.73600
C2208       C  0.00791206  0.96015817  0.55294307     0.97100
C2209       C  0.05033956  0.87547243  0.93908853     0.93500
Al2210     Al  0.10436434  0.90733425  0.49224816     1.55600
O2211       O  0.99649315  0.94394263  0.95714350    -0.78200
C2212       C  0.13131383  0.95260495  0.54889452     0.97700
C2213       C  0.05917129  0.87386603  0.54487762     0.92600
O2214       O  0.02834134  0.88206992  0.52799026    -0.83500
O2215       O  0.99182453  0.53872766  0.70726403    -0.83000
C2216       C  0.12427405  0.52945288  0.80284611     0.96300
O2217       O  0.09236037  0.51613365  0.79975339    -0.72100
O2218       O  0.01828718  0.50941134  0.77982884    -0.75700
Al2219     Al  0.06463912  0.51459143  0.74767600     1.49000
C2220       C  0.00366808  0.52663741  0.80536136     0.91600
O2221       O  0.03358860  0.60350761  0.77167804    -0.81900
O2222       O  0.08617692  0.59911656  0.70066207    -0.75500
Al2223     Al  0.01682607  0.56892590  0.74218632     1.90100
O2224       O  0.09439716  0.59694475  0.78472001    -0.74600
O2225       O  0.12350243  0.55143708  0.69399486    -0.74400
O2226       O  0.13228290  0.55043554  0.77972065    -0.80100
O2227       O  0.11266895  0.50971803  0.72007789    -0.78300
O2228       O  0.06247560  0.55243254  0.74359692    -1.14400
O2229       O  0.03948893  0.51061761  0.69460215    -0.73600
C2230       C  0.00828275  0.52135422  0.68295589     0.97100
C2231       C  0.06618738  0.61291732  0.78431750     0.93500
Al2232     Al  0.10547044  0.57266512  0.73995478     1.55600
O2233       O  0.00296014  0.55265560  0.79599106    -0.78200
C2234       C  0.13432047  0.52657335  0.70052219     0.97700
C2235       C  0.05408961  0.60378676  0.68372506     0.92600
O2236       O  0.02510860  0.58818653  0.69080582    -0.83500
C2237       C  0.10149181  0.72775997  0.83810247     0.85300
C2238       C  0.07402262  0.75021828  0.85238232    -0.55000
C2239       C  0.09014399  0.76952009  0.87946895     0.08200
C2240       C  0.13295556  0.76461809  0.89013783     0.19200
C2241       C  0.13533727  0.74635288  0.81941996    -0.55700
C2242       C  0.15207849  0.76579225  0.84775707     0.08300
C2243       C  0.11859073  0.71490763  0.87795880    -0.55200
C2244       C  0.13845040  0.73323896  0.90324966     0.08900
H2245       H  0.04590786  0.75302763  0.83812643     0.13400
H2246       H  0.14348339  0.78041281  0.91360682    -0.00900
H2247       H  0.14540445  0.74436808  0.78756820     0.13700
H2248       H  0.12259092  0.69211438  0.88046583     0.13500
C2249       C  0.09492262  0.71436590  0.62956147     0.85300
C2250       C  0.11805446  0.72773213  0.66800477    -0.55000
C2251       C  0.13833930  0.75233531  0.65850831     0.08200
C2252       C  0.13450511  0.76008665  0.61236549     0.19200
C2253       C  0.07044718  0.73836100  0.61240714    -0.55700
C2254       C  0.09142735  0.76211193  0.60289404     0.08300
C2255       C  0.12637825  0.71061053  0.59656520    -0.55200
C2256       C  0.14953958  0.73368295  0.59107086     0.08900
H2257       H  0.12143573  0.71710203  0.69792734     0.13400
H2258       H  0.15051773  0.77953853  0.60293714    -0.00900
H2259       H  0.03965399  0.73654947  0.60742337     0.13700
H2260       H  0.13510739  0.69028256  0.58476655     0.13500
C2261       C  0.98466986  0.97566913  0.58575117     0.85300
C2262       C  0.00851743  0.99625135  0.61426417    -0.55000
C2263       C  0.99107266  0.51207569  0.64117054     0.08200
C2264       C  0.94738593  0.50937301  0.63248984     0.19200
C2265       C  0.95875488  0.95943959  0.61740005    -0.55700
C2266       C  0.93827374  0.97708878  0.64344646     0.08300
C2267       C  0.95804685  0.99385745  0.56107220    -0.55200
C2268       C  0.94100979  0.51312290  0.58359325     0.08900
H2269       H  0.03938379  0.99454521  0.61751254     0.13400
H2270       H  0.93041304  0.52387005  0.65196625    -0.00900
H2271       H  0.95984866  0.93664642  0.62177924     0.13700
H2272       H  0.95543363  0.99230215  0.52715733     0.13500
O2273       O  0.42944535  0.80823623  0.78295042    -0.83000
C2274       C  0.28907212  0.79672146  0.69491670     0.96300
O2275       O  0.31872942  0.78244991  0.70061681    -0.72100
O2276       O  0.39181397  0.77270750  0.71736595    -0.75700
Al2277     Al  0.34980920  0.78729348  0.75030528     1.49000
C2278       C  0.41458093  0.78426525  0.69118357     0.91600
O2279       O  0.40401426  0.86493480  0.69920199    -0.81900
O2280       O  0.35260831  0.87950449  0.75708483    -0.75500
Al2281     Al  0.41102571  0.83499734  0.74015852     1.90100
O2282       O  0.34503553  0.85683691  0.67755682    -0.74600
O2283       O  0.30224221  0.84197990  0.78328643    -0.74400
O2284       O  0.28975567  0.82263815  0.70487738    -0.80100
O2285       O  0.30557670  0.79533620  0.78249023    -0.76300
O2286       O  0.36196573  0.82340195  0.74073510    -1.14400
O2287       O  0.37710552  0.78684356  0.80322726    -0.73600
C2288       C  0.41199441  0.79281974  0.80963902     0.97100
C2289       C  0.37635791  0.87042290  0.67442398     0.93500
Al2290     Al  0.32568814  0.84826462  0.73105039     1.55600
O2291       O  0.42183332  0.81059833  0.69333328    -0.78200
C2292       C  0.28989680  0.81786412  0.79439566     0.97700
C2293       C  0.38044688  0.88071663  0.78295582     0.92600
O2294       O  0.40431254  0.86105800  0.78527634    -0.83500
O2295       O  0.43463726  0.70939256  0.96069064    -0.83000
C2296       C  0.30473257  0.71697585  0.55842614     0.96300
O2297       O  0.33529563  0.73131544  0.55465037    -0.72100
O2298       O  0.40752545  0.74003337  0.53796139    -0.75700
Al2299     Al  0.36059124  0.73089118  0.00248122     1.49000
C2300       C  0.42582821  0.72330634  0.56177200     0.91600
O2301       O  0.40516839  0.64643456  0.53483939    -0.81900
O2302       O  0.34906435  0.64053559  0.97172868    -0.75500
Al2303     Al  0.41480838  0.67971163  0.99862307     1.90100
O2304       O  0.34777271  0.65579056  0.55580271    -0.74600
O2305       O  0.30509897  0.68353716  0.95471902    -0.74400
O2306       O  0.29923773  0.69405985  0.53853821    -0.80100
O2307       O  0.31231191  0.72888214  0.97099803    -0.78300
O2308       O  0.36774022  0.69358539  0.00137454    -1.14400
O2309       O  0.38470137  0.73563650  0.95002913    -0.73600
C2310       C  0.41634480  0.72679251  0.93788468     0.97100
C2311       C  0.37711580  0.64099971  0.55852539     0.93500
Al2312     Al  0.32810008  0.66997236  0.00443973     1.55600
O2313       O  0.43103661  0.69821753  0.54993208    -0.78200
C2314       C  0.29345176  0.70861268  0.95322692     0.97700
C2315       C  0.37744430  0.63910578  0.94806933     0.92600
O2316       O  0.40367019  0.65800895  0.94901229    -0.83500
C2317       C  0.33227332  0.53151950  0.88357866     0.85300
C2318       C  0.31100952  0.51806996  0.92154471    -0.55000
C2319       C  0.29051918  0.99257840  0.90987619     0.08200
C2320       C  0.29681381  0.98401750  0.86430561     0.19200
C2321       C  0.35730021  0.50817701  0.86704891    -0.55700
C2322       C  0.34044168  0.98280718  0.85909461     0.08300
C2323       C  0.29988914  0.53423567  0.85007299    -0.55200
C2324       C  0.27840143  0.50998890  0.84274207     0.08900
H2325       H  0.31035742  0.52834922  0.95204763     0.13400
H2326       H  0.28214944  0.96391210  0.85451948    -0.00900
H2327       H  0.38806041  0.51067796  0.86361918     0.13700
H2328       H  0.28915425  0.55444681  0.83987941     0.13500
C2329       C  0.33194969  0.53110625  0.62367144     0.85300
C2330       C  0.35797145  0.50543879  0.62013763    -0.55000
C2331       C  0.33993319  0.98116471  0.63205818     0.08200
C2332       C  0.29703408  0.98370014  0.64221122     0.19200
C2333       C  0.29709454  0.52326860  0.59455265    -0.55700
C2334       C  0.27838920  0.99790655  0.60398314     0.08300
C2335       C  0.31678842  0.52904027  0.66893466    -0.55200
C2336       C  0.29444238  0.50537094  0.67727310     0.08900
H2337       H  0.38740521  0.50615373  0.61035485     0.13400
H2338       H  0.28503224  0.96271064  0.65088062    -0.00900
H2339       H  0.28760552  0.53689363  0.56929443     0.13700
H2340       H  0.31970719  0.54713239  0.68957495     0.13500
C2341       C  0.43433899  0.77594091  0.84314164     0.85300
C2342       C  0.41058260  0.75567466  0.87156224    -0.55000
C2343       C  0.43211352  0.73846754  0.89750714     0.08200
C2344       C  0.47546184  0.74144430  0.88934419     0.19200
C2345       C  0.46193678  0.79138600  0.87520593    -0.55700
C2346       C  0.48258086  0.77333035  0.90111616     0.08300
C2347       C  0.45921305  0.75694238  0.81856313    -0.55200
C2348       C  0.48015143  0.73858687  0.84019921     0.08900
H2349       H  0.37987301  0.75759052  0.87475826     0.13400
H2350       H  0.49309452  0.72665257  0.90803541    -0.00900
H2351       H  0.46192833  0.81423120  0.87987895     0.13700
H2352       H  0.46021188  0.75800237  0.78453417     0.13500
C2353       C  0.59037370  0.52191856  0.85475112     0.85300
C2354       C  0.61070673  0.51273536  0.81357260    -0.55000
C2355       C  0.63334818  0.98930473  0.82456746     0.08200
C2356       C  0.63035174  0.97646441  0.86847263     0.19200
C2357       C  0.56701984  0.49609655  0.86803206    -0.55700
C2358       C  0.58745547  0.97195025  0.87671985     0.08300
C2359       C  0.62397405  0.52455719  0.88644615    -0.55200
C2360       C  0.64633465  0.50131671  0.88932407     0.08900
H2361       H  0.61206690  0.52602999  0.78588531     0.13400
H2362       H  0.64667239  0.95688151  0.87343107    -0.00900
H2363       H  0.53592800  0.99573997  0.87888770     0.13700
H2364       H  0.63398555  0.54500553  0.89875745     0.13500
O2365       O  0.49415909  0.69392565  0.80729979    -0.83000
C2366       C  0.63980383  0.69132976  0.73614198     0.96300
O2367       O  0.61509388  0.70959766  0.72706362    -0.72100
O2368       O  0.54548403  0.71906435  0.70302770    -0.75700
Al2369     Al  0.57090795  0.71935733  0.75718432     1.49000
C2370       C  0.51092494  0.71359004  0.69538483     0.91600
O2371       O  0.53044755  0.64651451  0.71716999    -0.81900
O2372       O  0.55826209  0.64827706  0.83749610    -0.75500
Al2373     Al  0.51161126  0.67056975  0.76117592     1.90100
O2374       O  0.58019609  0.63208214  0.75627957    -0.74600
O2375       O  0.61110357  0.68886916  0.83681557    -0.74400
O2376       O  0.63319682  0.67193950  0.76189710    -0.80100
O2377       O  0.60198579  0.72848225  0.80387448    -0.78300
O2378       O  0.55920263  0.68407571  0.77117735    -1.14400
O2379       O  0.52826945  0.73262370  0.78961876    -0.73600
C2380       C  0.50371064  0.72009319  0.81318371     0.97100
C2381       C  0.55856556  0.62992936  0.72350682     0.93500
Al2382     Al  0.59264498  0.66191305  0.79619416     1.55600
O2383       O  0.49348518  0.69737227  0.72015343    -0.78200
C2384       C  0.62102513  0.71427581  0.82934461     0.97700
C2385       C  0.53203425  0.63122972  0.82591126     0.92600
O2386       O  0.51136651  0.63797143  0.79552565    -0.83500
C2387       C  0.59567456  0.52523373  0.63739088     0.85300
C2388       C  0.56722901  0.50044111  0.63161104    -0.55000
C2389       C  0.57999858  0.97674684  0.61700101     0.08200
C2390       C  0.62220331  0.97987263  0.60356664     0.19200
C2391       C  0.63011722  0.51146456  0.66065946    -0.55700
C2392       C  0.64495667  0.98862163  0.64357371     0.08300
C2393       C  0.61070774  0.53199074  0.59346994    -0.55200
C2394       C  0.62899350  0.51053097  0.57338361     0.08900
H2395       H  0.53821684  0.99968888  0.65009234     0.13400
H2396       H  0.63086832  0.96020072  0.58792686    -0.00900
H2397       H  0.64288859  0.52011800  0.68951761     0.13700
H2398       H  0.61234210  0.55387409  0.58434941     0.13500
O2399       O  0.49406677  0.80779194  0.95607691    -0.83000
C2400       C  0.62718857  0.79992614  0.56350404     0.96300
O2401       O  0.60970328  0.78005030  0.54342975    -0.72100
O2402       O  0.53701202  0.77082027  0.55644916    -0.75700
Al2403     Al  0.56417231  0.77660317  0.00495737     1.49000
C2404       C  0.50576712  0.78009704  0.56907855     0.91600
O2405       O  0.51561031  0.84906122  0.56094800    -0.81900
O2406       O  0.57893637  0.85480435  0.95778732    -0.75500
Al2407     Al  0.50798635  0.82750378  0.51014028     1.90100
O2408       O  0.57084858  0.86803703  0.54376971    -0.74600
O2409       O  0.62831187  0.81688787  0.97681566    -0.74400
O2410       O  0.61593428  0.82518136  0.56168365    -0.80100
O2411       O  0.59614312  0.77875431  0.95640033    -0.78300
O2412       O  0.55571054  0.81378443  0.00728509    -1.14400
O2413       O  0.52159658  0.76716301  0.96507717    -0.73600
C2414       C  0.50074165  0.78320365  0.94274058     0.97100
C2415       C  0.54081560  0.86854723  0.56490704     0.93500
Al2416     Al  0.59503401  0.83848795  0.00847313     1.55600
O2417       O  0.48777914  0.79766168  0.54657757    -0.78200
C2418       C  0.62641439  0.79408691  0.95630114     0.97700
C2419       C  0.54772269  0.86714994  0.95332931     0.92600
O2420       O  0.51855171  0.85955427  0.97385776    -0.83500
C2421       C  0.48864769  0.73084565  0.66273900     0.85300
C2422       C  0.46346280  0.71503503  0.62914184    -0.55000
C2423       C  0.44246467  0.73284867  0.60345902     0.08200
C2424       C  0.44668025  0.76451331  0.61645711     0.19200
C2425       C  0.51195688  0.75257377  0.63637682    -0.55700
C2426       C  0.49006632  0.76913059  0.60994769     0.08300
C2427       C  0.46109918  0.74806952  0.68711512    -0.55200
C2428       C  0.43932921  0.76584435  0.66518928     0.08900
H2429       H  0.46516158  0.69234268  0.62360479     0.13400
H2430       H  0.42870995  0.77897661  0.59756741    -0.00900
H2431       H  0.54284499  0.75157885  0.63391770     0.13700
H2432       H  0.45900137  0.74626433  0.72095666     0.13500
C2433       C  0.53503615  0.89403182  0.59071066    -0.07300
C2434       C  0.55869137  0.89851286  0.62634137    -0.18500
C2435       C  0.56845299  0.92614014  0.64001705     0.09900
C2436       C  0.55837308  0.94931825  0.61458640    -0.07300
C2437       C  0.53075202  0.94506737  0.58259225    -0.18500
C2438       C  0.51747189  0.91759926  0.57201022     0.09900
S2439       S  0.59306225  0.93064346  0.69001702    -0.33500
S2440       S  0.47962696  0.91200396  0.03040996    -0.33500
H2441       H  0.46537509  0.88609180  0.04618013     0.27900
H2442       H  0.58237967  0.95882782  0.69681836     0.27900
H2443       H  0.57108965  0.88055534  0.64220937     0.18500
H2444       H  0.52087053  0.96298041  0.56456392     0.18500
C2445       C  0.58263211  0.55280969  0.65797003    -0.07300
C2446       C  0.61217578  0.57165971  0.67181171    -0.18500
C2447       C  0.60481566  0.59812116  0.68864136     0.09900
C2448       C  0.56676862  0.60636971  0.69430429    -0.07300
C2449       C  0.53708190  0.58941024  0.67655596    -0.18500
C2450       C  0.54468211  0.56342691  0.65667556     0.09900
S2451       S  0.64555083  0.62132310  0.69913389    -0.33500
S2452       S  0.50531432  0.54724068  0.62720308    -0.33500
H2453       H  0.52739679  0.54145919  0.59181460     0.27900
H2454       H  0.62664058  0.64524525  0.68379025     0.27900
H2455       H  0.64185660  0.56634981  0.66775057     0.18500
H2456       H  0.50784958  0.59641195  0.67812627     0.18500
C2457       C  0.56614496  0.54847036  0.85279462    -0.07300
C2458       C  0.54345325  0.55310514  0.81680025    -0.18500
C2459       C  0.52441639  0.57863148  0.81151238     0.09900
C2460       C  0.53216589  0.60139541  0.84008846    -0.07300
C2461       C  0.54984658  0.59538421  0.87854647    -0.18500
C2462       C  0.56354811  0.56837246  0.88659996     0.09900
S2463       S  0.49088337  0.58059003  0.76805777    -0.33500
S2464       S  0.57277707  0.56039465  0.94115786    -0.33500
H2465       H  0.55987427  0.53202344  0.93738250     0.27900
H2466       H  0.46462475  0.59676839  0.79037110     0.27900
H2467       H  0.54040957  0.53675642  0.79278508     0.18500
H2468       H  0.55292594  0.61182450  0.90243653     0.18500
C2469       C  0.54871593  0.89409879  0.93101156    -0.07300
C2470       C  0.55492462  0.91831961  0.95611445    -0.18500
C2471       C  0.56665071  0.94408002  0.93872499     0.09900
C2472       C  0.57173604  0.94573380  0.89509078    -0.07300
C2473       C  0.56424322  0.92178374  0.86947743    -0.18500
C2474       C  0.55309541  0.89570950  0.88726898     0.09900
S2475       S  0.57759133  0.97415605  0.97285152    -0.33500
S2476       S  0.54601370  0.86441536  0.85476364    -0.33500
H2477       H  0.54960168  0.87830334  0.81598728     0.27900
H2478       H  0.57793838  0.95909941  0.01082373     0.27900
H2479       H  0.55335237  0.91648669  0.98986920     0.18500
H2480       H  0.56824241  0.92335506  0.83595861     0.18500
C2481       C  0.38038330  0.61325331  0.92289851    -0.07300
C2482       C  0.39098068  0.58876875  0.94443913    -0.18500
C2483       C  0.37908427  0.56170747  0.93007065     0.09900
C2484       C  0.35470980  0.55924904  0.89402197    -0.07300
C2485       C  0.35034923  0.58372382  0.86888715    -0.18500
C2486       C  0.36218741  0.61064843  0.88340880     0.09900
S2487       S  0.39378683  0.53091162  0.95933938    -0.33500
S2488       S  0.35010355  0.64107362  0.85213747    -0.33500
H2489       H  0.37770244  0.65982775  0.87040353     0.27900
H2490       H  0.41414491  0.54556017  0.99166577     0.27900
H2491       H  0.40585412  0.59107712  0.97444912     0.18500
H2492       H  0.33684260  0.58254001  0.83816064     0.18500
C2493       C  0.37430182  0.61529163  0.58550285    -0.07300
C2494       C  0.34047552  0.61198270  0.60816468    -0.18500
C2495       C  0.32666872  0.58546627  0.62069339     0.09900
C2496       C  0.34860305  0.56088826  0.61375693    -0.07300
C2497       C  0.38521138  0.56494602  0.59603992    -0.18500
C2498       C  0.39820927  0.59172579  0.58211611     0.09900
S2499       S  0.27889919  0.58421871  0.64159640    -0.33500
S2500       S  0.44500362  0.59414727  0.55954917    -0.33500
H2501       H  0.45430810  0.62067602  0.57818056     0.27900
H2502       H  0.27806606  0.61264141  0.65535132     0.27900
H2503       H  0.32234125  0.63001563  0.61251111     0.18500
H2504       H  0.40377397  0.54741154  0.59106236     0.18500
C2505       C  0.35901213  0.95734621  0.84328572    -0.07300
C2506       C  0.35493704  0.93202860  0.86583612    -0.18500
C2507       C  0.36739553  0.90640357  0.84926848     0.09900
C2508       C  0.38391682  0.90615864  0.80926603    -0.07300
C2509       C  0.39087323  0.93185836  0.78840101    -0.18500
C2510       C  0.37809578  0.95741251  0.80472829     0.09900
S2511       S  0.35716448  0.87430941  0.87797630    -0.33500
S2512       S  0.38281910  0.98873199  0.77280664    -0.33500
H2513       H  0.42323308  0.48161563  0.76447047     0.27900
H2514       H  0.38799684  0.85912305  0.86238525     0.27900
H2515       H  0.34049953  0.93205023  0.89565581     0.18500
H2516       H  0.40257460  0.93160369  0.75712843     0.18500
C2517       C  0.35882117  0.95316453  0.63103473    -0.07300
C2518       C  0.33929742  0.93054268  0.61052306    -0.18500
C2519       C  0.34804007  0.90231375  0.61918312     0.09900
C2520       C  0.37746499  0.89664070  0.64876197    -0.07300
C2521       C  0.40173344  0.91925588  0.66262030    -0.18500
C2522       C  0.39272867  0.94756271  0.65406292     0.09900
S2523       S  0.32019422  0.87392367  0.59392308    -0.33500
S2524       S  0.42291204  0.97588226  0.67582232    -0.33500
H2525       H  0.45275739  0.95877500  0.69030424     0.27900
H2526       H  0.29145039  0.89096669  0.57668467     0.27900
H2527       H  0.31605319  0.93505690  0.58904516     0.18500
H2528       H  0.42534501  0.91503079  0.68398624     0.18500
C2529       C  0.17291061  0.76436182  0.68106632    -0.07300
C2530       C  0.20189977  0.74592473  0.69342614    -0.18500
C2531       C  0.24075878  0.75488963  0.69478534     0.09900
C2532       C  0.25095997  0.78327122  0.68401775    -0.07300
C2533       C  0.22143262  0.80164896  0.67288465    -0.18500
C2534       C  0.18296455  0.79313645  0.67443023     0.09900
S2535       S  0.27648011  0.72944791  0.70913848    -0.33500
S2536       S  0.14746722  0.81989998  0.66628175    -0.33500
H2537       H  0.11699628  0.80395873  0.68336763     0.27900
H2538       H  0.25110008  0.70699660  0.71930231     0.27900
H2539       H  0.19432708  0.72398055  0.69932906     0.18500
H2540       H  0.22816282  0.82361901  0.66549829     0.18500
C2541       C  0.27191487  0.72753531  0.58084829    -0.07300
C2542       C  0.25194724  0.70730523  0.60414233    -0.18500
C2543       C  0.21240647  0.70824728  0.60837235     0.09900
C2544       C  0.19192438  0.73048322  0.58828683    -0.07300
C2545       C  0.21292966  0.75244033  0.56897280    -0.18500
C2546       C  0.25277183  0.75141604  0.56558827     0.09900
S2547       S  0.19043588  0.68033058  0.63948610    -0.33500
S2548       S  0.27627423  0.77792009  0.03635918    -0.33500
H2549       H  0.24445006  0.79484822  0.02811615     0.27900
H2550       H  0.22405722  0.67028760  0.65861880     0.27900
H2551       H  0.26715693  0.68906423  0.61564054     0.18500
H2552       H  0.19791254  0.76997639  0.55513395     0.18500
C2553       C  0.25403452  0.71317602  0.93855366    -0.07300
C2554       C  0.22491327  0.71119044  0.96844257    -0.18500
C2555       C  0.18648437  0.71522564  0.95722338     0.09900
C2556       C  0.17711038  0.72290833  0.91590405    -0.07300
C2557       C  0.20562956  0.72076779  0.88508144    -0.18500
C2558       C  0.24404836  0.71684848  0.89611821     0.09900
S2559       S  0.15070010  0.70761373  0.99556816    -0.33500
S2560       S  0.27883954  0.71759190  0.85501066    -0.33500
H2561       H  0.30948733  0.72870137  0.87979556     0.27900
H2562       H  0.11873590  0.70542900  0.96824895     0.27900
H2563       H  0.23201304  0.70586112  0.00061815     0.18500
H2564       H  0.19855692  0.72346429  0.85222670     0.18500
C2565       C  0.18667987  0.78454261  0.83954049    -0.07300
C2566       C  0.18837495  0.79836409  0.80065438    -0.18500
C2567       C  0.21930497  0.81640255  0.79139594     0.09900
C2568       C  0.25324129  0.81489571  0.81547065    -0.07300
C2569       C  0.25211003  0.80199452  0.85448226    -0.18500
C2570       C  0.21788235  0.78981943  0.86898628     0.09900
S2571       S  0.21313605  0.84268046  0.75136853    -0.33500
S2572       S  0.21640446  0.78314003  0.92481355    -0.33500
H2573       H  0.25361598  0.79293500  0.93593942     0.27900
H2574       H  0.23732893  0.86324083  0.77109890     0.27900
H2575       H  0.16463051  0.79655481  0.77839841     0.18500
H2576       H  0.27808328  0.80179634  0.87359241     0.18500
C2577       C  0.23602346  0.51211267  0.83634432    -0.07300
C2578       C  0.21730012  0.53450009  0.85647065    -0.18500
C2579       C  0.17792599  0.53761803  0.85270396     0.09900
C2580       C  0.15618570  0.51851114  0.82752587    -0.07300
C2581       C  0.17364575  0.49445407  0.81105547    -0.18500
C2582       C  0.21334330  0.49116620  0.81478671     0.09900
S2583       S  0.15710922  0.56798575  0.87737793    -0.33500
S2584       S  0.23731008  0.96178302  0.78401446    -0.33500
H2585       H  0.27325016  0.97454727  0.77604152     0.27900
H2586       H  0.11915134  0.55723373  0.87544620     0.27900
H2587       H  0.23332859  0.55006142  0.87524715     0.18500
H2588       H  0.15709384  0.47997007  0.79078948     0.18500
C2589       C  0.17532878  0.51958480  0.69579110    -0.07300
C2590       C  0.20279736  0.54047325  0.70830844    -0.18500
C2591       C  0.24175008  0.53443918  0.71251013     0.09900
C2592       C  0.25530185  0.50823878  0.69740055    -0.07300
C2593       C  0.22723120  0.48633443  0.69077889    -0.18500
C2594       C  0.18787015  0.49162541  0.69005913     0.09900
S2595       S  0.27017203  0.55840807  0.74541605    -0.33500
S2596       S  0.15281567  0.96309321  0.67673014    -0.33500
H2597       H  0.12635630  0.97828909  0.65242295     0.27900
H2598       H  0.29670423  0.53778897  0.75725528     0.27900
H2599       H  0.19351557  0.56106483  0.71876358     0.18500
H2600       H  0.23276932  0.96599855  0.68195324     0.18500
C2601       C  0.05014123  0.63091935  0.66201587    -0.07300
C2602       C  0.04046897  0.65443825  0.68667048    -0.18500
C2603       C  0.05125549  0.68224031  0.67513296     0.09900
C2604       C  0.07244569  0.68646480  0.63816860    -0.07300
C2605       C  0.07445850  0.66312675  0.60993333    -0.18500
C2606       C  0.06540590  0.63543596  0.62230831     0.09900
S2607       S  0.03867098  0.71171005  0.70832156    -0.33500
S2608       S  0.07677629  0.60656853  0.58763034    -0.33500
H2609       H  0.05116767  0.58653845  0.60497545     0.27900
H2610       H  0.01790819  0.69580011  0.73782657     0.27900
H2611       H  0.02736101  0.65079779  0.71674069     0.18500
H2612       H  0.08443414  0.66582855  0.57831512     0.18500
C2613       C  0.08392185  0.70258597  0.81294905    -0.07300
C2614       C  0.10864886  0.68838486  0.78625519    -0.18500
C2615       C  0.10384387  0.65948516  0.77688015     0.09900
C2616       C  0.07251470  0.64370014  0.79353759    -0.07300
C2617       C  0.04539181  0.65816196  0.81635405    -0.18500
C2618       C  0.05095492  0.68696075  0.82734359     0.09900
S2619       S  0.13955428  0.64375721  0.74444889    -0.33500
S2620       S  0.01716289  0.70183255  0.86326641    -0.33500
H2621       H  0.99262268  0.67789257  0.86699384     0.27900
H2622       H  0.15365395  0.66907724  0.72655655     0.27900
H2623       H  0.13446655  0.69897696  0.77592656     0.18500
H2624       H  0.02077588  0.64628394  0.82761447     0.18500
C2625       C  0.23983422  0.98767947  0.58786675    -0.07300
C2626       C  0.23247455  0.95822346  0.58847327    -0.18500
C2627       C  0.19590499  0.94655668  0.58210939     0.09900
C2628       C  0.16554578  0.96431692  0.57094860    -0.07300
C2629       C  0.17213609  0.99372626  0.57041448    -0.18500
C2630       C  0.20853766  0.00573236  0.57961230     0.09900
S2631       S  0.18983565  0.90873387  0.58967976    -0.33500
S2632       S  0.21273249  0.54471766  0.58737587    -0.33500
H2633       H  0.17379082  0.55083235  0.58171987     0.27900
H2634       H  0.15138481  0.90989591  0.60182841     0.27900
H2635       H  0.25504207  0.94378929  0.59555856     0.18500
H2636       H  0.14892967  0.00728248  0.56117822     0.18500
C2637       C  0.25499035  0.98121365  0.92991653    -0.07300
C2638       C  0.24609684  0.95210134  0.92369531    -0.18500
C2639       C  0.20837905  0.94122913  0.92474796     0.09900
C2640       C  0.17827020  0.95949824  0.93441219    -0.07300
C2641       C  0.18773064  0.98831120  0.94302906    -0.18500
C2642       C  0.22531594  0.99918586  0.94209829     0.09900
S2643       S  0.20090965  0.90423260  0.91167406    -0.33500
S2644       S  0.23546803  0.53606469  0.96299604    -0.33500
H2645       H  0.19713122  0.54356417  0.96803519     0.27900
H2646       H  0.16935163  0.90907051  0.88475048     0.27900
H2647       H  0.26853906  0.93794440  0.91472447     0.18500
H2648       H  0.16543774  0.00264872  0.95150395     0.18500
C2649       C  0.04487509  0.84955049  0.91412206    -0.07300
C2650       C  0.06644376  0.84757523  0.87795065    -0.18500
C2651       C  0.07837774  0.82132275  0.86356783     0.09900
C2652       C  0.07128184  0.79669356  0.88780792    -0.07300
C2653       C  0.04629453  0.79828113  0.92147464    -0.18500
C2654       C  0.03183671  0.82440462  0.93382378     0.09900
S2655       S  0.10256113  0.82133546  0.81446041    -0.33500
S2656       S  0.99903974  0.82466006  0.97670572    -0.33500
H2657       H  0.98099661  0.84963508  0.96416086     0.27900
H2658       H  0.08781259  0.79476180  0.80098657     0.27900
H2659       H  0.07602800  0.86678422  0.86229359     0.18500
H2660       H  0.03884685  0.77928139  0.93884766     0.18500
C2661       C  0.06225915  0.84468717  0.56050864    -0.07300
C2662       C  0.08376270  0.82667112  0.53552870    -0.18500
C2663       C  0.08991533  0.79871181  0.54673208     0.09900
C2664       C  0.07572927  0.78834272  0.58489370    -0.07300
C2665       C  0.05284924  0.80588077  0.60949226    -0.18500
C2666       C  0.04578068  0.83406661  0.59754256     0.09900
S2667       S  0.11679593  0.77740930  0.51117580    -0.33500
S2668       S  0.01774652  0.85554594  0.63182077    -0.33500
H2669       H  0.03036744  0.88220823  0.61728322     0.27900
H2670       H  0.09749274  0.75178081  0.52078341     0.27900
H2671       H  0.09582400  0.83444388  0.50654069     0.18500
H2672       H  0.04236083  0.79815367  0.63922424     0.18500
C2673       C  0.76644394  0.51917442  0.91065450    -0.07300
C2674       C  0.75095498  0.49280766  0.92307455    -0.18500
C2675       C  0.71188924  0.48621891  0.91693038     0.09900
C2676       C  0.68834585  0.50590726  0.89622554    -0.07300
C2677       C  0.70550822  0.53071615  0.87963180    -0.18500
C2678       C  0.74379719  0.53765866  0.88704655     0.09900
S2679       S  0.69433030  0.95493661  0.94644551    -0.33500
S2680       S  0.76115549  0.57209626  0.86993004    -0.33500
H2681       H  0.80005854  0.56506104  0.86994982     0.27900
H2682       H  0.66039453  0.96690471  0.96036007     0.27900
H2683       H  0.76808834  0.47891579  0.94237723     0.18500
H2684       H  0.68883217  0.54546867  0.86141947     0.18500
C2685       C  0.66636228  0.51688696  0.55076302    -0.07300
C2686       C  0.69265499  0.49486546  0.54599808    -0.18500
C2687       C  0.73220143  0.50027169  0.54372962     0.09900
C2688       C  0.74668346  0.52862709  0.54527831    -0.07300
C2689       C  0.72010695  0.55049855  0.54365613    -0.18500
C2690       C  0.68051349  0.54484367  0.54293134     0.09900
S2691       S  0.76204704  0.46975163  0.53901010    -0.33500
S2692       S  0.65000657  0.57242331  0.52348973    -0.33500
H2693       H  0.67898699  0.59008919  0.50688599     0.27900
H2694       H  0.78837348  0.48093282  0.07357377     0.27900
H2695       H  0.68290935  0.96772746  0.55637772     0.18500
H2696       H  0.73023389  0.57221103  0.53973474     0.18500
C2697       C  0.74871214  0.97233970  0.79529781    -0.07300
C2698       C  0.72135100  0.94998953  0.79822118    -0.18500
C2699       C  0.68202655  0.95498765  0.79922063     0.09900
C2700       C  0.66884151  0.98305403  0.80072627    -0.07300
C2701       C  0.69531004  0.00523223  0.79287440    -0.18500
C2702       C  0.73476615  0.00026764  0.79010770     0.09900
S2703       S  0.64963667  0.92456884  0.79866476    -0.33500
S2704       S  0.76550791  0.52929795  0.78156791    -0.33500
H2705       H  0.79193570  0.02405150  0.81270741     0.27900
H2706       H  0.61739547  0.93965564  0.78541338     0.27900
H2707       H  0.73039976  0.92817106  0.79840033     0.18500
H2708       H  0.68560535  0.52610976  0.78925843     0.18500
C2709       C  0.76588110  0.97272924  0.66020301    -0.07300
C2710       C  0.74020371  0.95052012  0.64847689    -0.18500
C2711       C  0.70094362  0.95467382  0.64375372     0.09900
C2712       C  0.68656368  0.98224445  0.64923344    -0.07300
C2713       C  0.71316765  0.00509471  0.65561916    -0.18500
C2714       C  0.75252998  0.00064601  0.66048826     0.09900
S2715       S  0.67035303  0.92385863  0.63351417    -0.33500
S2716       S  0.78400717  0.03115139  0.66802323    -0.33500
H2717       H  0.81358484  0.01989892  0.64414228     0.27900
H2718       H  0.69881398  0.90330795  0.63246910     0.27900
H2719       H  0.75077305  0.92913841  0.64694585     0.18500
H2720       H  0.70338161  0.02671449  0.65638397     0.18500
C2721       C  0.74077131  0.73290662  0.84989465    -0.07300
C2722       C  0.71890223  0.75070457  0.82450699    -0.18500
C2723       C  0.67893988  0.74772429  0.82115510     0.09900
C2724       C  0.65963731  0.72540992  0.84292220    -0.07300
C2725       C  0.68110532  0.70845570  0.86978129    -0.18500
C2726       C  0.72096697  0.71157700  0.87362961     0.09900
S2727       S  0.65400981  0.77294405  0.78857409    -0.33500
S2728       S  0.74426437  0.68714775  0.90873378    -0.33500
H2729       H  0.71161390  0.67460600  0.92679882     0.27900
H2730       H  0.68623159  0.78563909  0.76980280     0.27900
H2731       H  0.73338631  0.76743978  0.80739612     0.18500
H2732       H  0.66660762  0.69138668  0.88618010     0.18500
C2733       C  0.74286212  0.77664896  0.93254260    -0.07300
C2734       C  0.71847521  0.75542402  0.94887873    -0.18500
C2735       C  0.67887279  0.75889767  0.95085411     0.09900
C2736       C  0.66286295  0.78484512  0.93847953    -0.07300
C2737       C  0.68744581  0.80630783  0.92299988    -0.18500
C2738       C  0.72698397  0.80274980  0.92074303     0.09900
S2739       S  0.65067374  0.72994375  0.97164687    -0.33500
S2740       S  0.75598575  0.83322020  0.90597156    -0.33500
H2741       H  0.78981799  0.82453483  0.92622007     0.27900
H2742       H  0.62260115  0.73104841  0.93943321     0.27900
H2743       H  0.73005941  0.73543606  0.95874806     0.18500
H2744       H  0.67606195  0.82692021  0.91561606     0.18500
C2745       C  0.85225236  0.80317924  0.85286317    -0.07300
C2746       C  0.87167432  0.82410576  0.87769329    -0.18500
C2747       C  0.87973831  0.85145841  0.86169083     0.09900
C2748       C  0.86812642  0.85771742  0.82011061    -0.07300
C2749       C  0.85171395  0.83580419  0.79483209    -0.18500
C2750       C  0.84405328  0.80883681  0.81045755     0.09900
S2751       S  0.90250845  0.87748283  0.89630635    -0.33500
S2752       S  0.82238899  0.78274991  0.77499666    -0.33500
H2753       H  0.83996180  0.75930010  0.79365922     0.27900
H2754       H  0.88512270  0.90131697  0.87871853     0.27900
H2755       H  0.87834901  0.81972286  0.91035350     0.18500
H2756       H  0.84343704  0.84001128  0.76254087     0.18500
C2757       C  0.85159271  0.70685974  0.92789241    -0.07300
C2758       C  0.83082164  0.69192332  0.95835744    -0.18500
C2759       C  0.82912071  0.66255352  0.95907815     0.09900
C2760       C  0.85558299  0.64672410  0.93613395    -0.07300
C2761       C  0.88151968  0.66156150  0.91080390    -0.18500
C2762       C  0.87818353  0.69103392  0.90415953     0.09900
S2763       S  0.78871017  0.64774061  0.98639548    -0.33500
S2764       S  0.90584809  0.70710517  0.86286943    -0.33500
H2765       H  0.91759981  0.68172804  0.84412978     0.27900
H2766       H  0.77552360  0.63157624  0.95145968     0.27900
H2767       H  0.81014731  0.70211550  0.97742158     0.18500
H2768       H  0.90285030  0.64975986  0.89433509     0.18500
C2769       C  0.73797597  0.77343439  0.60402518    -0.07300
C2770       C  0.70710929  0.77238420  0.63219430    -0.18500
C2771       C  0.67069240  0.78168739  0.62089911     0.09900
C2772       C  0.66525467  0.79425653  0.58153971    -0.07300
C2773       C  0.69696639  0.79866165  0.55550652    -0.18500
C2774       C  0.73327063  0.78865017  0.56645144     0.09900
S2775       S  0.63231285  0.77568627  0.65722900    -0.33500
S2776       S  0.77250451  0.79770773  0.53266146    -0.33500
H2777       H  0.80255500  0.79427991  0.56185522     0.27900
H2778       H  0.60758649  0.79614459  0.64099116     0.27900
H2779       H  0.71054020  0.76312805  0.66287844     0.18500
H2780       H  0.69325840  0.80945473  0.52584879     0.18500
C2781       C  0.67796148  0.69383080  0.71843064    -0.07300
C2782       C  0.68076421  0.70126071  0.67660341    -0.18500
C2783       C  0.71620170  0.70834986  0.66003204     0.09900
C2784       C  0.74778473  0.71463206  0.68821709    -0.07300
C2785       C  0.74557668  0.70470938  0.72938948    -0.18500
C2786       C  0.71172733  0.69187604  0.74334779     0.09900
S2787       S  0.71943106  0.70590449  0.60363241    -0.33500
S2788       S  0.71423783  0.67149630  0.79074294    -0.33500
H2789       H  0.69505409  0.64756597  0.77298260     0.27900
H2790       H  0.68024437  0.70202985  0.59369427     0.27900
H2791       H  0.65527768  0.70016417  0.65667821     0.18500
H2792       H  0.77073308  0.70565554  0.74987601     0.18500
C2793       C  0.86160052  0.85646348  0.67394144    -0.07300
C2794       C  0.88742151  0.83571901  0.68746695    -0.18500
C2795       C  0.87881897  0.80663724  0.68232341     0.09900
C2796       C  0.84384102  0.79797383  0.66267404    -0.07300
C2797       C  0.81994648  0.81885025  0.64600668    -0.18500
C2798       C  0.82893295  0.84768623  0.65011308     0.09900
S2799       S  0.91209315  0.78202468  0.70475828    -0.33500
S2800       S  0.79697867  0.87205995  0.62472175    -0.33500
H2801       H  0.82533043  0.89329374  0.61842103     0.27900
H2802       H  0.88479114  0.76079008  0.71453315     0.27900
H2803       H  0.91282411  0.84198139  0.70563819     0.18500
H2804       H  0.79366249  0.81291858  0.62958091     0.18500
C2805       C  0.84306969  0.69881148  0.59093659    -0.07300
C2806       C  0.81566126  0.67674626  0.58457137    -0.18500
C2807       C  0.82592649  0.64861313  0.58386797     0.09900
C2808       C  0.86338258  0.64171340  0.57298646    -0.07300
C2809       C  0.89116273  0.66392999  0.57168566    -0.18500
C2810       C  0.88192811  0.69230599  0.58271439     0.09900
S2811       S  0.79006665  0.62153466  0.59604338    -0.33500
S2812       S  0.91900511  0.71947866  0.58034013    -0.33500
H2813       H  0.94983442  0.70127750  0.57487952     0.27900
H2814       H  0.76379036  0.63975957  0.61451854     0.27900
H2815       H  0.78581649  0.68100285  0.58805197     0.18500
H2816       H  0.91944962  0.65924623  0.56071902     0.18500
loop_ 
_geom_bond_atom_site_label_1 
_geom_bond_atom_site_label_2 
_geom_bond_distance 
_geom_bond_site_symmetry_2 
_ccdc_geom_bond_type 
C1            C2   1.570       .  S
C1            C7   1.544       .  S
C1            C5   1.541       .  S
C1          C693   1.554       .  S
C2            H9   1.086       .  S
C2            C3   1.385       .  D
C3            C4   1.508       .  S
C3          C657   1.495       .  S
C4            C8   1.537       .  S
C4            C6   1.551       .  S
C4           H10   1.111       .  S
C5           H11   1.078       .  S
C5            C6   1.376       .  D
C6          C684   1.494       .  S
C7           H12   1.088       .  S
C7            C8   1.335       .  D
C8          C672   1.493       .  S
C13          C14   1.527       .  S
C13          C19   1.542       .  S
C13          C17   1.576       .  S
C13         C645   1.539       .  S
C14          H21   1.085       .  S
C14          C15   1.363       .  D
C15          C16   1.548       .  S
C15         C633   1.476       .  S
C16          C20   1.535       .  S
C16          C18   1.516       .  S
C16          H22   1.107       .  S
C17          H23   1.081       .  S
C17          C18   1.372       .  D
C18         C621   1.492       .  S
C19          H24   1.086       .  S
C19          C20   1.352       .  D
C20         C609   1.504       .  S
O25          C40   1.261       .  A
O25         Al33   1.929       .  S
C26          O36   1.264       .  A
C26          O27   1.264       .  A
C26         C585   1.504       .  S
O27         Al29   1.929       .  S
O28          C30   1.269       .  A
O28         Al29   1.952       .  S
Al29         O37   1.933       .  S
Al29         O39   1.942       .  S
Al29         O38   1.808       .  S
C30          C71   1.526       .  S
C30          O43   1.272       .  A
O31          C41   1.266       .  A
O31         Al33   1.934       .  S
O32          C45   1.260       .  A
O32         Al42   1.891       .  S
Al33         O46   1.920       .  S
Al33         O43   1.954       .  S
Al33         O38   1.797       .  S
O34          C41   1.254       .  A
O34         Al42   1.863       .  S
O35          C44   1.253       .  A
O35         Al42   1.850       .  S
O36         Al42   1.897       .  S
O37          C44   1.266       .  A
O38         Al42   1.777       .  S
O39          C40   1.268       .  A
C40         C154   1.514       .  S
C41         C636   1.478       .  S
C44         C597   1.479       .  S
C45          O46   1.262       .  A
C45         C681   1.490       .  S
O47          C62   1.279       .  A
O47        Al759   1.974   1_554  S
C48          O58   1.256       .  A
C48          O49   1.266       .  A
C48         C561   1.457       .  S
O49        Al755   1.914       .  S
O50          C52   1.269       .  A
O50        Al755   1.910       .  S
Al51         O59   1.922   1_556  S
Al51         O61   1.933   1_556  S
Al51        O753   1.903       .  S
Al51        O754   1.920       .  S
Al51         O60   1.787       .  S
C52          C76   1.500       .  S
C52          O65   1.264       .  A
O53          C63   1.263       .  A
O53         Al55   1.932       .  S
O54          C67   1.253       .  A
O54         Al64   1.842   1_554  S
Al55         O65   1.959       .  S
Al55        O751   1.971       .  S
Al55        O772   1.932       .  S
Al55        O764   1.797       .  S
O56          C63   1.257       .  A
O56        Al768   1.889       .  S
O57          C66   1.256       .  A
O57         Al64   1.891   1_554  S
O58        Al768   1.855       .  S
O59          C66   1.259       .  A
O60         Al64   1.752       .  S
O60        Al759   1.796       .  S
O61          C62   1.263       .  A
C62         C156   1.502       .  S
C63         C648   1.481       .  S
Al64        O760   1.894       .  S
Al64        O762   1.864       .  S
C66         C576   1.494       .  S
C67          O68   1.271       .  A
C67         C696   1.480       .  S
O68        Al759   1.948   1_554  S
C69          C70   1.554       .  S
C69          C75   1.492       .  S
C69          C73   1.547   1_655  S
C69          C86   1.534   1_655  S
C70          H77   1.086       .  S
C70          C71   1.387       .  D
C71        C1480   1.563       .  S
C72          C76   1.585       .  S
C72          C74   1.561       .  S
C72        C1479   1.557   1_545  S
C72          H78   1.110       .  S
C73          H79   1.086       .  S
C73        C1482   1.383   1_455  D
C74        C1481   1.382   1_645  D
C74         C108   1.509   1_655  S
C75          H80   1.084       .  S
C75        C1484   1.336       .  D
C76        C1483   1.338   1_545  D
O81          C96   1.261       .  A
O81        Al793   1.939   1_554  S
C82          O92   1.264       .  A
C82          O83   1.255       .  A
C82         C528   1.494       .  S
O83        Al789   1.873       .  S
O84          C86   1.260       .  A
O84        Al789   1.915       .  S
Al85         O93   1.917   1_556  S
Al85         O95   1.919   1_556  S
Al85        O787   1.876       .  S
Al85        O788   1.923       .  S
Al85         O94   1.777       .  S
C86          O99   1.278   1_455  A
O87          C97   1.261       .  A
O87         Al89   1.899       .  S
O88         C101   1.255       .  A
O88         Al98   1.884   1_554  S
Al89         O99   1.970   1_455  S
Al89        O785   1.942       .  S
Al89        O806   1.934       .  S
Al89        O798   1.792       .  S
O90          C97   1.261       .  A
O90        Al802   1.894       .  S
O91         C100   1.256       .  A
O91         Al98   1.865   1_554  S
O92        Al802   1.914       .  S
O93         C100   1.267       .  A
O94         Al98   1.775       .  S
O94        Al793   1.797       .  S
O95          C96   1.269       .  A
C96         C149   1.529   1_455  S
C97         C537   1.459       .  S
Al98        O794   1.890       .  S
Al98        O796   1.914       .  S
C100        C516   1.473       .  S
C101        O102   1.263       .  A
C101        C549   1.470       .  S
O102       Al793   1.932   1_554  S
O103        C118   1.275   1_655  A
O103       Al111   1.965   1_655  S
C104        O114   1.263       .  A
C104        O105   1.269       .  A
C104        C468   1.463       .  S
O105       Al107   1.910       .  S
O106        C108   1.268       .  A
O106       Al107   1.942       .  S
Al107       O115   1.924       .  S
Al107       O117   1.897       .  S
Al107       O116   1.789       .  S
C108        O121   1.263       .  A
O109        C119   1.267       .  A
O109       Al111   1.939       .  S
O110        C123   1.259       .  A
O110       Al120   1.894       .  S
Al111       O124   1.900       .  S
Al111       O121   1.941       .  S
Al111       O116   1.799       .  S
O112        C119   1.255       .  A
O112       Al120   1.870       .  S
O113        C122   1.257       .  A
O113       Al120   1.894       .  S
O114       Al120   1.895       .  S
O115        C122   1.259       .  A
O116       Al120   1.766       .  S
O117        C118   1.264       .  A
C118        C151   1.505   1_455  S
C119        C504   1.480       .  S
C122        C477   1.488       .  S
C123        O124   1.260       .  A
C123        C489   1.464       .  S
C125        C126   1.517       .  S
C125        C131   1.527       .  S
C125        C129   1.580       .  S
C125        C501   1.530       .  S
C126        H133   1.086       .  S
C126        C127   1.353       .  D
C127        C128   1.552       .  S
C127        C540   1.478       .  S
C128        C132   1.555       .  S
C128        C130   1.516       .  S
C128        H134   1.102       .  S
C129        H135   1.083       .  S
C129        C130   1.389       .  D
C130        C453   1.504       .  S
C131        H136   1.089       .  S
C131        C132   1.348       .  D
C132        C444   1.497       .  S
C137        C138   1.575       .  S
C137        C143   1.547       .  S
C137        C141   1.530       .  S
C137        C492   1.541       .  S
C138        H145   1.084       .  S
C138        C139   1.385       .  D
C139        C140   1.522       .  S
C139        C417   1.495       .  S
C140        C144   1.521       .  S
C140        C142   1.532       .  S
C140        H146   1.106       .  S
C141        H147   1.086       .  S
C141        C142   1.358       .  D
C142        C552   1.477       .  S
C143        H148   1.082       .  S
C143        C144   1.354       .  D
C144        C432   1.496       .  S
C149        C150   1.542   1_655  S
C149        C155   1.496       .  S
C149        C153   1.558       .  S
C150        H157   1.087       .  S
C150       C1559   1.381   1_455  D
C151        C152   1.550       .  S
C151       C1558   1.379   1_645  D
C152        C156   1.582       .  S
C152       C1562   1.553   1_545  S
C152        H158   1.110       .  S
C153        H159   1.085       .  S
C153        C154   1.391       .  D
C154       C1560   1.553       .  S
C155        H160   1.083       .  S
C155       C1564   1.334       .  D
C156       C1563   1.338   1_545  D
O161        C176   1.272       .  A
O161       Al169   1.966       .  S
C162        O172   1.258       .  A
C162        O163   1.262       .  A
C162        C420   1.495       .  S
O163       Al165   1.915       .  S
O164        C166   1.281       .  A
O164       Al165   1.969       .  S
Al165       O173   1.915       .  S
Al165       O175   1.919       .  S
Al165       O174   1.776       .  S
C166        C316   1.503       .  S
C166        O179   1.261       .  A
O167        C177   1.267       .  A
O167       Al169   1.929       .  S
O168        C181   1.261       .  A
O168       Al178   1.898       .  S
Al169       O182   1.908       .  S
Al169       O179   1.923       .  S
Al169       O174   1.789       .  S
O170        C177   1.263       .  A
O170       Al178   1.899       .  S
O171        C180   1.260       .  A
O171       Al178   1.888       .  S
O172       Al178   1.891       .  S
O173        C180   1.266       .  A
O174       Al178   1.775       .  S
O175        C176   1.255       .  A
C176        C229   1.544       .  S
C177        C408   1.486       .  S
C180        C456   1.461       .  S
C181        O182   1.264       .  A
C181        C396   1.458       .  S
O183        C198   1.276       .  A
O183       Al191   1.980       .  S
C184        O194   1.256       .  A
C184        O185   1.256       .  A
C184        C429   1.461       .  S
O185       Al891   1.902       .  S
O186        C188   1.272       .  A
O186       Al891   1.952       .  S
Al187       O195   1.950       .  S
Al187       O197   1.886       .  S
Al187       O889   1.898       .  S
Al187       O890   1.961       .  S
Al187       O196   1.779       .  S
C188        C311   1.498       .  S
C188        O201   1.257       .  A
O189        C199   1.270       .  A
O189       Al895   1.972   1_554  S
O190        C203   1.260       .  A
O190       Al200   1.901       .  S
Al191       O204   1.896       .  S
Al191       O893   1.972       .  S
Al191       O905   1.884       .  S
Al191       O196   1.788       .  S
O192        C199   1.256       .  A
O192       Al904   1.857       .  S
O193        C202   1.262       .  A
O193       Al200   1.886       .  S
O194       Al904   1.880       .  S
O195        C202   1.271       .  A
O196       Al200   1.758       .  S
O197        C198   1.257       .  A
C198        C231   1.507       .  S
C199        C381   1.492       .  S
Al200       O896   1.851       .  S
Al200       O898   1.882       .  S
O201       Al895   1.883   1_554  S
C202        C441   1.469       .  S
C203        O204   1.259       .  A
C203        C369   1.457       .  S
C205        C206   1.562       .  S
C205        C211   1.549       .  S
C205        C209   1.518       .  S
C205        C372   1.533       .  S
C206        H213   1.083       .  S
C206       C1615   1.378   1_545  D
C207        C208   1.523       .  S
C207       C1614   1.376       .  D
C207        C525   1.491       .  S
C208        C210   1.535       .  S
C208       C1620   1.531       .  S
C208        H214   1.106       .  S
C209        H215   1.086       .  S
C209       C1618   1.355   1_545  D
C210       C1617   1.358       .  D
C210        C393   1.470       .  S
C211        H216   1.083       .  S
C211        C212   1.365       .  D
C212       C1616   1.530   1_545  S
C212        C465   1.497       .  S
C217        C218   1.535       .  S
C217        C223   1.548       .  S
C217        C221   1.553       .  S
C217        C384   1.542       .  S
C218        H225   1.080       .  S
C218       C1627   1.358   1_545  D
C219        C220   1.545       .  S
C219       C1626   1.358       .  D
C219        C405   1.490       .  S
C220        C222   1.534       .  S
C220       C1632   1.543       .  S
C220        H226   1.103       .  S
C221        H227   1.085       .  S
C221       C1630   1.370   1_545  D
C222       C1629   1.369       .  D
C222        C513   1.496       .  S
C223        H228   1.074       .  S
C223        C224   1.374       .  D
C224       C1628   1.544   1_545  S
C224        C480   1.532       .  S
C229        C230   1.554       .  S
C229        C235   1.491       .  S
C229        C233   1.555       .  S
C230        H237   1.086       .  S
C230        C231   1.388       .  D
C231        C232   1.544       .  S
C232        C236   1.582       .  S
C232        C234   1.562       .  S
C232        H238   1.110       .  S
C233        H239   1.086       .  S
C233        C234   1.393       .  D
C234        C302   1.527       .  S
C235        H240   1.081       .  S
C235        C236   1.333       .  D
C236        C268   1.492       .  S
C241        C242   1.571       .  S
C241        C247   1.540       .  S
C241        C245   1.519   1_545  S
C241        C345   1.537       .  S
C242        H249   1.086       .  S
C242       C1651   1.384   1_545  D
C243        C244   1.530       .  S
C243       C1650   1.382       .  D
C243        C588   1.498       .  S
C244        C246   1.537       .  S
C244       C1656   1.533       .  S
C244        H250   1.106       .  S
C245       H1659   1.087       .  S
C245       C1654   1.354       .  D
C246       C1653   1.352       .  D
C246        C360   1.469       .  S
C247        H252   1.084       .  S
C247        C248   1.368       .  D
C248       C1652   1.532   1_545  S
C248        C564   1.492       .  S
H251       C1653   1.087       .  S
O253        C268   1.279       .  A
O253       Al261   1.948       .  S
C254        O264   1.252       .  A
C254        O255   1.262       .  A
C254        C669   1.459       .  S
O255       Al257   1.889       .  S
O256        C258   1.247       .  A
O256       Al257   1.923       .  S
Al257       O265   1.865       .  S
Al257       O267   1.932       .  S
Al257       O266   1.768       .  S
C258        C309   1.539       .  S
C258        O271   1.262       .  A
O259        C269   1.284       .  A
O259       Al261   1.934       .  S
O260        C273   1.253       .  A
O260       Al270   1.907       .  S
Al261       O274   1.906       .  S
Al261       O271   1.950       .  S
Al261       O266   1.788       .  S
O262        C269   1.276       .  A
O262       Al270   1.917       .  S
O263        C272   1.262       .  A
O263       Al270   1.891       .  S
O264       Al270   1.864       .  S
O265        C272   1.248       .  A
O266       Al270   1.768       .  S
O267        C268   1.282       .  A
C269        C336   1.479       .  S
C272        C612   1.485       .  S
C273        O274   1.248       .  A
C273        C348   1.485       .  S
C275        C276   1.522   1_545  S
C275        C281   1.537       .  S
C275        C279   1.560       .  S
C275        C333   1.537       .  S
C276       H1691   1.082       .  S
C276       C1685   1.353       .  D
C277        C278   1.549       .  S
C277       C1684   1.352       .  D
C277        C324   1.480       .  S
C278        C280   1.536       .  S
C278       C1690   1.549       .  S
C278        H284   1.099       .  S
C279        H285   1.086       .  S
C279       C1688   1.377   1_545  D
C280       C1687   1.375       .  D
C280        C600   1.502       .  S
C281        H286   1.073       .  S
C281        C282   1.371       .  D
C282       C1686   1.550   1_545  S
C282        C573   1.530       .  S
H283       C1684   1.081       .  S
O287        C302   1.262       .  A
O287       Al999   1.922       .  S
C288        O298   1.264       .  A
C288        O289   1.266       .  A
C288        C660   1.465       .  S
O289       Al995   1.921       .  S
O290        C292   1.261       .  A
O290       Al995   1.918       .  S
Al291       O299   1.925       .  S
Al291       O301   1.979       .  S
Al291       O993   1.926       .  S
Al291       O994   1.926       .  S
Al291       O300   1.786       .  S
C292        C314   1.523       .  S
C292        O305   1.272       .  A
O293        C303   1.260       .  A
O293       Al295   1.918       .  S
O294        C307   1.254       .  A
O294       Al304   1.870       .  S
Al295       O305   1.969       .  S
Al295       O991   1.922   1_554  S
Al295      O1012   1.940   1_554  S
Al295      O1004   1.796       .  S
O296        C303   1.257       .  A
O296      Al1008   1.898       .  S
O297        C306   1.253       .  A
O297       Al304   1.869       .  S
O298      Al1008   1.892       .  S
O299        C306   1.265       .  A
O300       Al304   1.778       .  S
O300       Al999   1.794       .  S
O301        C302   1.274       .  A
C303        C321   1.471       .  S
Al304      O1000   1.899       .  S
Al304      O1002   1.890       .  S
C306        C624   1.476       .  S
C307        O308   1.269       .  A
C307        C357   1.463       .  S
O308       Al999   1.950       .  S
C309        C310   1.543       .  S
C309        C315   1.499       .  S
C309        C313   1.558       .  S
C310        H317   1.086       .  S
C310        C311   1.387       .  D
C311        C312   1.547       .  S
C312        C316   1.584       .  S
C312        C314   1.552       .  S
C312        H318   1.110       .  S
C313        H319   1.086       .  S
C313        C314   1.389       .  D
C315        H320   1.079       .  S
C315        C316   1.337       .  D
C321        C322   1.402       .  A
C321        C326   1.413       .  A
C322        C323   1.401       .  A
C322        H331   1.084       .  S
C323        C324   1.412       .  A
C323        S327   1.804       .  S
C324        C325   1.399       .  A
C325        C326   1.400       .  A
C325        H332   1.084       .  S
C326       S1032   1.802       .  S
S327        H330   1.404       .  S
S328       C1030   1.801       .  S
S328        H329   1.406       .  S
C333        C334   1.407       .  A
C333        C338   1.432       .  A
C334        C335   1.386       .  A
C334        H343   1.083       .  S
C335        C336   1.409       .  A
C335        S339   1.799       .  S
C336        C337   1.400       .  A
C337        C338   1.408       .  A
C337        H344   1.084       .  S
C338        S340   1.800       .  S
S339        H342   1.407       .  S
S340        H341   1.407       .  S
C345        C346   1.403       .  A
C345        C350   1.427       .  A
C346        C347   1.401       .  A
C346        H355   1.084       .  S
C347        C348   1.419       .  A
C347        S351   1.798       .  S
C348        C349   1.397       .  A
C349        C350   1.399       .  A
C349        H356   1.084       .  S
C350        S352   1.802       .  S
S351        H354   1.408       .  S
S352        H353   1.405       .  S
C357        C358   1.401       .  A
C357        C362   1.406       .  A
C358        C359   1.394       .  A
C358        H367   1.081       .  S
C359        C360   1.406       .  A
C359        S363   1.808       .  S
C360        C361   1.404       .  A
C361        C362   1.406       .  A
C361        H368   1.082       .  S
C362        S364   1.804       .  S
S363        H366   1.406       .  S
S364        H365   1.407       .  S
C369        C370   1.401       .  A
C369        C374   1.399       .  A
C370        C371   1.401       .  A
C370        H379   1.082       .  S
C371        C372   1.417       .  A
C371        S375   1.809       .  S
C372        C373   1.416       .  A
C373        C374   1.395       .  A
C373        H380   1.080       .  S
C374        S376   1.804       .  S
S375        H378   1.407       .  S
S376        H377   1.406       .  S
C381        C382   1.402       .  A
C381        C386   1.411       .  A
C382        C383   1.390       .  A
C382        H391   1.082       .  S
C383        C384   1.423       .  A
C383        S387   1.812       .  S
C384        C385   1.418       .  A
C385        C386   1.408       .  A
C385        H392   1.077       .  S
C386        S388   1.801       .  S
S387        H390   1.407       .  S
S388        H389   1.407       .  S
C393        C394   1.402       .  A
C393        C398   1.408       .  A
C394        C395   1.396       .  A
C394        H403   1.082       .  S
C395        C396   1.408       .  A
C395        S399   1.804       .  S
C396        C397   1.403       .  A
C397        C398   1.396       .  A
C397        H404   1.083       .  S
C398        S400   1.802       .  S
S399        H402   1.405       .  S
S400       H1809   1.406       .  S
H401       S1808   1.407   1_545  S
C405        C406   1.403       .  A
C405        C410   1.410       .  A
C406        C407   1.402       .  A
C406        H415   1.077       .  S
C407        C408   1.411       .  A
C407        S411   1.808       .  S
C408        C409   1.409       .  A
C409        C410   1.404       .  A
C409        H416   1.082       .  S
C410        S412   1.805       .  S
S411        H414   1.407       .  S
S412        H413   1.407       .  S
C417        C418   1.404       .  A
C417        C422   1.412       .  A
C418        C419   1.414       .  A
C418        H427   1.080       .  S
C419        C420   1.423       .  A
C419        S423   1.805       .  S
C420        C421   1.404       .  A
C421        C422   1.394       .  A
C421        H428   1.084       .  S
C422        S424   1.808       .  S
S423        H426   1.407       .  S
S424        H425   1.407       .  S
C429        C430   1.394       .  A
C429        C434   1.408       .  A
C430        C431   1.395       .  A
C430        H439   1.084       .  S
C431        C432   1.429       .  A
C431        S435   1.812       .  S
C432        C433   1.404       .  A
C433        C434   1.399       .  A
C433        H440   1.082       .  S
C434       S1140   1.805       .  S
S435        H438   1.407       .  S
S436       C1138   1.806       .  S
S436        H437   1.407       .  S
C441        C442   1.409       .  A
C441        C446   1.402       .  A
C442        C443   1.401       .  A
C442        H451   1.081       .  S
C443        C444   1.401       .  A
C443        S447   1.797       .  S
C444        C445   1.417       .  A
C445        C446   1.399       .  A
C445        H452   1.079       .  S
C446        S448   1.805       .  S
S447        H450   1.402       .  S
S448        H449   1.405       .  S
C453        C454   1.402       .  A
C453        C458   1.439       .  A
C454        C455   1.391       .  A
C454        H463   1.081       .  S
C455        C456   1.403       .  A
C455        S459   1.795       .  S
C456        C457   1.388       .  A
C457        C458   1.402       .  A
C457        H464   1.083       .  S
C458        S460   1.808       .  S
S459        H462   1.406       .  S
S460        H461   1.406       .  S
C465        C466   1.412       .  A
C465        C470   1.414   1_545  A
C466        C467   1.393       .  A
C466        H475   1.081       .  S
C467        C468   1.403       .  A
C467        S471   1.804       .  S
C468        C469   1.405   1_545  A
C469        C470   1.403       .  A
C469        H476   1.084       .  S
C470       S1880   1.803       .  S
S471        H474   1.407       .  S
S472       C1878   1.803       .  S
S472        H473   1.406       .  S
C477        C478   1.407       .  A
C477        C482   1.409   1_545  A
C478        C479   1.403       .  A
C478        H487   1.083       .  S
C479        C480   1.420       .  A
C479        S483   1.802       .  S
C480        C481   1.418   1_545  A
C481        C482   1.403       .  A
C481       H1896   1.077       .  S
C482       S1892   1.803       .  S
S483        H486   1.408       .  S
S484       C1890   1.803       .  S
S484        H485   1.407       .  S
H488       C1889   1.077       .  S
C489        C490   1.405       .  A
C489        C494   1.398       .  A
C490        C491   1.406       .  A
C490        H499   1.083       .  S
C491        C492   1.415       .  A
C491        S495   1.807       .  S
C492        C493   1.420       .  A
C493        C494   1.395       .  A
C493        H500   1.080       .  S
C494        S496   1.804       .  S
S495        H498   1.407       .  S
S496        H497   1.407       .  S
C501        C502   1.400       .  A
C501        C506   1.434       .  A
C502        C503   1.393       .  A
C502        H511   1.075       .  S
C503        C504   1.418       .  A
C503        S507   1.807       .  S
C504        C505   1.394       .  A
C505        C506   1.405       .  A
C505        H512   1.083       .  S
C506        S508   1.811       .  S
S507        H510   1.405       .  S
S508        H509   1.407   1_455  S
C513        C514   1.402       .  A
C513        C518   1.423       .  A
C514        C515   1.386       .  A
C514        H523   1.076       .  S
C515        C516   1.412       .  A
C515        S519   1.807       .  S
C516        C517   1.402       .  A
C517        C518   1.406       .  A
C517        H524   1.083       .  S
C518       S1928   1.801       .  S
S519        H522   1.408       .  S
S520       C1926   1.802       .  S
S520        H521   1.406       .  S
C525        C526   1.410       .  A
C525        C530   1.410       .  A
C526        C527   1.402       .  A
C526        H535   1.082       .  S
C527        C528   1.414       .  A
C527        S531   1.801       .  S
C528        C529   1.414       .  A
C529        C530   1.397       .  A
C529        H536   1.082       .  S
C530       S1940   1.807       .  S
S531        H534   1.407       .  S
S532       C1938   1.809   1_545  S
S532        H533   1.407       .  S
C537        C538   1.392       .  A
C537        C542   1.413       .  A
C538        C539   1.393       .  A
C538        H547   1.084       .  S
C539        C540   1.418       .  A
C539        S543   1.792       .  S
C540        C541   1.397       .  A
C541        C542   1.398       .  A
C541        H548   1.084       .  S
C542        S544   1.799   1_455  S
S543        H546   1.403       .  S
S544        H545   1.406       .  S
C549        C550   1.402       .  A
C549        C554   1.412       .  A
C550        C551   1.388       .  A
C550        H559   1.083       .  S
C551        C552   1.405       .  A
C551        S555   1.800       .  S
C552        C553   1.408       .  A
C553        C554   1.409       .  A
C553        H560   1.084       .  S
C554        S556   1.805       .  S
S555        H558   1.406       .  S
S556        H557   1.403       .  S
C561        C562   1.404   1_545  A
C561        C566   1.407       .  A
C562        C563   1.403       .  A
C562        H571   1.084       .  S
C563        C564   1.415   1_565  A
C563       S1975   1.803       .  S
C564        C565   1.410       .  A
C565        C566   1.383       .  A
C565        H572   1.082       .  S
C566        S568   1.810       .  S
S567       C1971   1.799       .  S
S567        H570   1.401       .  S
S568        H569   1.407       .  S
C573        C574   1.414   1_545  A
C573        C578   1.422       .  A
C574        C575   1.402       .  A
C574       H1991   1.077       .  S
C575        C576   1.414   1_565  A
C575        S579   1.804       .  S
C576        C577   1.407       .  A
C577        C578   1.406       .  A
C577        H584   1.082       .  S
C578        S580   1.809       .  S
S579       H1286   1.407       .  S
S580        H581   1.407       .  S
H582       S1283   1.407       .  S
H583       C1982   1.077       .  S
C585        C586   1.410       .  A
C585        C590   1.424       .  A
C586        C587   1.401       .  A
C586        H595   1.083       .  S
C587        C588   1.411       .  A
C587        S591   1.804       .  S
C588        C589   1.405       .  A
C589        C590   1.409       .  A
C589       H2004   1.083       .  S
C590       S2000   1.800       .  S
S591        H594   1.407       .  S
S592       C1998   1.800       .  S
S592       H2001   1.408       .  S
H593       S2000   1.407       .  S
H596       C1997   1.083       .  S
C597        C598   1.403       .  A
C597        C602   1.408       .  A
C598        C599   1.395       .  A
C598        H607   1.084       .  S
C599        C600   1.417       .  A
C599        S603   1.803       .  S
C600        C601   1.415       .  A
C601        C602   1.405       .  A
C601        H608   1.083       .  S
C602        S604   1.799       .  S
S603        H606   1.408       .  S
S604        H605   1.407       .  S
C609        C610   1.400       .  A
C609        C614   1.433       .  A
C610        C611   1.402       .  A
C610        H619   1.082       .  S
C611        C612   1.424       .  A
C611        S615   1.811       .  S
C612        C613   1.394       .  A
C613        C614   1.397       .  A
C613        H620   1.083       .  S
C614        S616   1.808       .  S
S615        H618   1.406       .  S
S616        H617   1.407       .  S
C621        C622   1.404       .  A
C621        C626   1.412       .  A
C622        C623   1.398       .  A
C622        H631   1.080       .  S
C623        C624   1.413       .  A
C623        S627   1.800       .  S
C624        C625   1.408       .  A
C625        C626   1.399       .  A
C625        H632   1.084       .  S
C626        S628   1.806       .  S
S627        H630   1.407       .  S
S628        H629   1.407       .  S
C633        C634   1.409       .  A
C633        C638   1.400       .  A
C634        C635   1.410       .  A
C634        H643   1.084       .  S
C635        C636   1.411       .  A
C635        S639   1.804       .  S
C636        C637   1.409       .  A
C637        C638   1.392       .  A
C637        H644   1.082       .  S
C638        S640   1.808       .  S
S639        H642   1.404       .  S
S640        H641   1.406       .  S
C645        C646   1.405       .  A
C645        C650   1.431       .  A
C646        C647   1.383       .  A
C646        H655   1.073       .  S
C647        C648   1.412       .  A
C647        S651   1.800       .  S
C648        C649   1.402       .  A
C649        C650   1.415       .  A
C649        H656   1.083       .  S
C650        S652   1.807       .  S
S651        H654   1.407       .  S
S652        H653   1.407       .  S
C657        C658   1.415       .  A
C657        C662   1.407       .  A
C658        C659   1.394       .  A
C658        H667   1.078       .  S
C659        C660   1.398       .  A
C659        S663   1.805       .  S
C660        C661   1.409       .  A
C661        C662   1.403       .  A
C661        H668   1.082       .  S
C662        S664   1.803       .  S
S663        H666   1.406       .  S
S664        H665   1.402       .  S
C669        C670   1.384       .  A
C669        C674   1.411       .  A
C670        C671   1.390       .  A
C670        H679   1.083       .  S
C671        C672   1.435       .  A
C671        S675   1.804       .  S
C672        C673   1.399       .  A
C673        C674   1.397       .  A
C673        H680   1.084       .  S
C674        S676   1.794       .  S
S675        H678   1.407       .  S
S676        H677   1.406       .  S
C681        C682   1.412       .  A
C681        C686   1.412       .  A
C682        C683   1.406       .  A
C682        H691   1.083       .  S
C683        C684   1.413       .  A
C683        S687   1.803       .  S
C684        C685   1.407       .  A
C685        C686   1.395       .  A
C685        H692   1.079       .  S
C686        S688   1.805       .  S
S687        H690   1.405       .  S
S688        H689   1.408       .  S
C693        C694   1.410       .  A
C693        C698   1.424       .  A
C694        C695   1.385       .  A
C694        H703   1.076       .  S
C695        C696   1.406       .  A
C695        S699   1.816       .  S
C696        C697   1.410       .  A
C697        C698   1.424       .  A
C697        H704   1.082       .  S
C698        S700   1.801       .  S
S699        H702   1.407       .  S
S700        H701   1.407       .  S
C705        C706   1.567       .  S
C705        C711   1.545       .  S
C705        C709   1.542       .  S
C705       C1397   1.551       .  S
C706        H713   1.086       .  S
C706        C707   1.384       .  D
C707        C708   1.508       .  S
C707       C1361   1.494       .  S
C708        C712   1.535       .  S
C708        C710   1.550       .  S
C708        H714   1.110       .  S
C709        H715   1.080       .  S
C709        C710   1.377       .  D
C710       C1388   1.491       .  S
C711        H716   1.088       .  S
C711        C712   1.334       .  D
C712       C1376   1.492       .  S
C717        C718   1.528       .  S
C717        C723   1.543       .  S
C717        C721   1.577       .  S
C717       C1349   1.543       .  S
C718        H725   1.084       .  S
C718        C719   1.361       .  D
C719        C720   1.545       .  S
C719       C1337   1.472       .  S
C720        C724   1.532       .  S
C720        C722   1.517       .  S
C720        H726   1.107       .  S
C721        H727   1.082       .  S
C721        C722   1.376       .  D
C722       C1325   1.494       .  S
C723        H728   1.086       .  S
C723        C724   1.354       .  D
C724       C1313   1.505       .  S
O729        C744   1.262       .  A
O729       Al737   1.925       .  S
C730        O740   1.263       .  A
C730        O731   1.265       .  A
C730       C1289   1.504       .  S
O731       Al733   1.931       .  S
O732        C734   1.270       .  A
O732       Al733   1.958       .  S
Al733       O741   1.933       .  S
Al733       O743   1.945       .  S
Al733       O742   1.802       .  S
C734        C775   1.528       .  S
C734        O747   1.271       .  A
O735        C745   1.266       .  A
O735       Al737   1.927       .  S
O736        C749   1.258       .  A
O736       Al746   1.887       .  S
Al737       O750   1.923       .  S
Al737       O747   1.953       .  S
Al737       O742   1.795       .  S
O738        C745   1.255       .  A
O738       Al746   1.864       .  S
O739        C748   1.252       .  A
O739       Al746   1.845       .  S
O740       Al746   1.895       .  S
O741        C748   1.265       .  A
O742       Al746   1.775       .  S
O743        C744   1.269       .  A
C744        C858   1.512       .  S
C745       C1340   1.472       .  S
C748       C1301   1.477       .  S
C749        O750   1.262       .  A
C749       C1385   1.489       .  S
O751        C766   1.280       .  A
C752        O762   1.257       .  A
C752        O753   1.262       .  A
C752       C1265   1.455       .  S
O754        C756   1.272       .  A
Al755       O763   1.901       .  S
Al755       O765   1.936       .  S
Al755       O764   1.788       .  S
C756        C780   1.505       .  S
C756        O769   1.267       .  A
O757        C767   1.264       .  A
O757       Al759   1.939       .  S
O758        C771   1.253       .  A
O758       Al768   1.844       .  S
Al759       O769   1.963       .  S
O760        C767   1.258       .  A
O761        C770   1.258       .  A
O761       Al768   1.895       .  S
O763        C770   1.254       .  A
O764       Al768   1.755       .  S
O765        C766   1.265       .  A
C766        C860   1.504       .  S
C767       C1352   1.488       .  S
C770       C1280   1.484       .  S
C771        O772   1.266       .  A
C771       C1400   1.473       .  S
C773        C774   1.559       .  S
C773        C779   1.492       .  S
C773        C777   1.548   1_655  S
C773        C790   1.541   1_655  S
C774        H781   1.086       .  S
C774        C775   1.391       .  D
C775       C2184   1.561       .  S
C776       C2183   1.557   1_545  S
C776        C780   1.587       .  S
C776        C778   1.563       .  S
C776        H782   1.110       .  S
C777        H783   1.086       .  S
C777       C2186   1.382   1_455  D
C778       C2185   1.381   1_645  D
C778        C812   1.511   1_655  S
C779        H784   1.083       .  S
C779       C2188   1.336       .  D
C780       C2187   1.337   1_545  D
O785        C800   1.261       .  A
C786        O796   1.265       .  A
C786        O787   1.256       .  A
C786       C1232   1.497       .  S
O788        C790   1.261       .  A
Al789       O797   1.910       .  S
Al789       O799   1.916       .  S
Al789       O798   1.776       .  S
C790        O803   1.278   1_455  A
O791        C801   1.261       .  A
O791       Al793   1.896       .  S
O792        C805   1.255       .  A
O792       Al802   1.879       .  S
Al793       O803   1.971   1_455  S
O794        C801   1.261       .  A
O795        C804   1.257       .  A
O795       Al802   1.869       .  S
O797        C804   1.266       .  A
O798       Al802   1.774       .  S
O799        C800   1.268       .  A
C800        C853   1.530   1_455  S
C801       C1241   1.457       .  S
C804       C1220   1.469       .  S
C805        O806   1.263       .  A
C805       C1253   1.471       .  S
O807        C822   1.275   1_655  A
O807       Al815   1.970   1_655  S
C808        O818   1.264       .  A
C808        O809   1.270       .  A
C808       C1172   1.469       .  S
O809       Al811   1.916       .  S
O810        C812   1.269       .  A
O810       Al811   1.944       .  S
Al811       O819   1.919       .  S
Al811       O821   1.900       .  S
Al811       O820   1.792       .  S
C812        O825   1.263       .  A
O813        C823   1.267       .  A
O813       Al815   1.942       .  S
O814        C827   1.259       .  A
O814       Al824   1.896       .  S
Al815       O828   1.898       .  S
Al815       O825   1.941       .  S
Al815       O820   1.802       .  S
O816        C823   1.256       .  A
O816       Al824   1.874       .  S
O817        C826   1.258       .  A
O817       Al824   1.893       .  S
O818       Al824   1.898       .  S
O819        C826   1.258       .  A
O820       Al824   1.768       .  S
O821        C822   1.265       .  A
C822        C855   1.512   1_455  S
C823       C1208   1.484       .  S
C826       C1181   1.489       .  S
C827        O828   1.259       .  A
C827       C1193   1.465       .  S
C829        C830   1.519       .  S
C829        C835   1.526       .  S
C829        C833   1.581       .  S
C829       C1205   1.532       .  S
C830        H837   1.086       .  S
C830        C831   1.354       .  D
C831        C832   1.551       .  S
C831       C1244   1.479       .  S
C832        C836   1.554       .  S
C832        C834   1.517       .  S
C832        H838   1.103       .  S
C833        H839   1.083       .  S
C833        C834   1.389       .  D
C834       C1157   1.505       .  S
C835        H840   1.090       .  S
C835        C836   1.347       .  D
C836       C1148   1.493       .  S
C841        C842   1.574       .  S
C841        C847   1.546       .  S
C841        C845   1.533       .  S
C841       C1196   1.542       .  S
C842        H849   1.084       .  S
C842        C843   1.383       .  D
C843        C844   1.522       .  S
C843       C1121   1.494       .  S
C844        C848   1.520       .  S
C844        C846   1.534       .  S
C844        H850   1.107       .  S
C845        H851   1.086       .  S
C845        C846   1.360       .  D
C846       C1256   1.481       .  S
C847        H852   1.081       .  S
C847        C848   1.353       .  D
C848       C1136   1.492       .  S
C853        C854   1.545   1_655  S
C853        C859   1.497       .  S
C853        C857   1.556       .  S
C854        H861   1.086       .  S
C854       C2263   1.382   1_455  D
C855        C856   1.553       .  S
C855       C2262   1.380   1_645  D
C856        C860   1.591       .  S
C856       C2266   1.556   1_545  S
C856        H862   1.110       .  S
C857        H863   1.085       .  S
C857        C858   1.390       .  D
C858       C2264   1.553       .  S
C859        H864   1.083       .  S
C859       C2268   1.335       .  D
C860       C2267   1.334   1_545  D
O865        C880   1.274       .  A
O865       Al873   1.970       .  S
C866        O876   1.259       .  A
C866        O867   1.261       .  A
C866       C1124   1.498       .  S
O867       Al869   1.914       .  S
O868        C870   1.281       .  A
O868       Al869   1.971       .  S
Al869       O877   1.916       .  S
Al869       O879   1.916       .  S
Al869       O878   1.774       .  S
C870       C1020   1.503       .  S
C870        O883   1.260       .  A
O871        C881   1.269       .  A
O871       Al873   1.935       .  S
O872        C885   1.261       .  A
O872       Al882   1.905       .  S
Al873       O886   1.907       .  S
Al873       O883   1.921       .  S
Al873       O878   1.787       .  S
O874        C881   1.263       .  A
O874       Al882   1.895       .  S
O875        C884   1.261       .  A
O875       Al882   1.889       .  S
O876       Al882   1.898       .  S
O877        C884   1.267       .  A
O878       Al882   1.775       .  S
O879        C880   1.254       .  A
C880        C933   1.545       .  S
C881       C1112   1.485       .  S
C884       C1160   1.460       .  S
C885        O886   1.264       .  A
C885       C1100   1.460       .  S
O887        C902   1.275       .  A
O887       Al895   1.977       .  S
C888        O898   1.256       .  A
C888        O889   1.256       .  A
C888       C1133   1.458       .  S
O890        C892   1.274       .  A
Al891       O899   1.938   1_554  S
Al891       O901   1.897   1_554  S
Al891       O900   1.781       .  S
C892       C1015   1.502       .  S
C892        O905   1.255       .  A
O893        C903   1.272       .  A
O894        C907   1.261       .  A
O894       Al904   1.903   1_556  S
Al895       O908   1.902       .  S
Al895       O900   1.788   1_556  S
O896        C903   1.255       .  A
O897        C906   1.261       .  A
O897       Al904   1.881   1_556  S
O899        C906   1.270       .  A
O900       Al904   1.757       .  S
O901        C902   1.258       .  A
C902        C935   1.510       .  S
C903       C1085   1.489       .  S
C906       C1145   1.462       .  S
C907        O908   1.262       .  A
C907       C1073   1.460       .  S
C909        C910   1.560       .  S
C909        C915   1.550       .  S
C909        C913   1.518       .  S
C909       C1076   1.537       .  S
C910        H917   1.083       .  S
C910       C2319   1.376   1_545  D
C911        C912   1.526       .  S
C911       C2318   1.377       .  D
C911       C1229   1.497       .  S
C912       C2324   1.529       .  S
C912        C914   1.538       .  S
C912        H918   1.106       .  S
C913        H919   1.086       .  S
C913       C2322   1.356   1_545  D
C914       C2321   1.358       .  D
C914       C1097   1.475       .  S
C915        H920   1.082       .  S
C915        C916   1.368       .  D
C916       C2320   1.533   1_545  S
C916       C1169   1.504       .  S
C921        C922   1.534       .  S
C921        C927   1.546       .  S
C921        C925   1.553       .  S
C921       C1088   1.541       .  S
C922        H929   1.080       .  S
C922       C2331   1.358   1_545  D
C923        C924   1.543       .  S
C923       C2330   1.359       .  D
C923       C1109   1.490       .  S
C924       C2336   1.542       .  S
C924        C926   1.533       .  S
C924        H930   1.103       .  S
C925        H931   1.084       .  S
C925       C2334   1.371   1_545  D
C926       C2333   1.370       .  D
C926       C1217   1.494       .  S
C927        H932   1.074       .  S
C927        C928   1.374       .  D
C928       C2332   1.543   1_545  S
C928       C1184   1.530       .  S
C933        C934   1.556       .  S
C933        C939   1.493       .  S
C933        C937   1.554       .  S
C934        H941   1.086       .  S
C934        C935   1.387       .  D
C935        C936   1.546       .  S
C936        C940   1.582       .  S
C936        C938   1.562       .  S
C936        H942   1.110       .  S
C937        H943   1.086       .  S
C937        C938   1.392       .  D
C938       C1006   1.526       .  S
C939        H944   1.082       .  S
C939        C940   1.334       .  D
C940        C972   1.495       .  S
C945        C946   1.570       .  S
C945        C951   1.537       .  S
C945        C949   1.519   1_545  S
C945       C1049   1.536       .  S
C946        H953   1.086       .  S
C946       C2355   1.384   1_545  D
C947        C948   1.531       .  S
C947       C2354   1.384       .  D
C947       C1292   1.497       .  S
C948       C2360   1.533       .  S
C948        C950   1.538       .  S
C948        H954   1.108       .  S
C949       H2363   1.086       .  S
C949       C2358   1.354       .  D
C950       C2357   1.351       .  D
C950       C1064   1.463       .  S
C951        H956   1.085       .  S
C951        C952   1.365       .  D
C952       C2356   1.531   1_545  S
C952       C1268   1.489       .  S
H955       C2357   1.087       .  S
O957        C972   1.280       .  A
O957       Al965   1.952       .  S
C958        O968   1.252       .  A
C958        O959   1.262       .  A
C958       C1373   1.459       .  S
O959       Al961   1.889       .  S
O960        C962   1.247       .  A
O960       Al961   1.925       .  S
Al961       O969   1.868       .  S
Al961       O971   1.936       .  S
Al961       O970   1.769       .  S
C962       C1013   1.547       .  S
C962        O975   1.262       .  A
O963        C973   1.285       .  A
O963       Al965   1.936       .  S
O964        C977   1.251       .  A
O964       Al974   1.905       .  S
Al965       O978   1.904       .  S
Al965       O975   1.956       .  S
Al965       O970   1.788       .  S
O966        C973   1.278       .  A
O966       Al974   1.925       .  S
O967        C976   1.262       .  A
O967       Al974   1.894       .  S
O968       Al974   1.863       .  S
O969        C976   1.249       .  A
O970       Al974   1.771       .  S
O971        C972   1.283       .  A
C973       C1040   1.486       .  S
C976       C1316   1.486       .  S
C977        O978   1.247       .  A
C977       C1052   1.487       .  S
C979        C980   1.527       .  S
C979        C985   1.538       .  S
C979        C983   1.557       .  S
C979       C1037   1.541       .  S
C980       H2395   1.083   1_545  S
C980       C2389   1.355   1_545  D
C981        C982   1.552       .  S
C981       C2388   1.354       .  D
C981       C1028   1.481       .  S
C982       C2394   1.550       .  S
C982        C984   1.534       .  S
C982        H988   1.099       .  S
C983        H989   1.086       .  S
C983       C2392   1.373   1_545  D
C984       C2391   1.374       .  D
C984       C1304   1.500       .  S
C985        H990   1.078       .  S
C985        C986   1.375       .  D
C986       C2390   1.546   1_545  S
C986       C1277   1.521       .  S
H987       C2388   1.083       .  S
O991       C1006   1.261       .  A
C992       O1002   1.263       .  A
C992        O993   1.266       .  A
C992       C1364   1.466       .  S
O994        C996   1.263       .  A
Al995      O1003   1.929   1_554  S
Al995      O1005   1.976   1_554  S
Al995      O1004   1.786       .  S
C996       C1018   1.529       .  S
C996       O1009   1.274       .  A
O997       C1007   1.261       .  A
O997       Al999   1.916       .  S
O998       C1011   1.255       .  A
O998      Al1008   1.866   1_556  S
Al999      O1009   1.979       .  S
O1000      C1007   1.258       .  A
O1001      C1010   1.251       .  A
O1001     Al1008   1.869   1_556  S
O1003      C1010   1.265       .  A
O1004     Al1008   1.780       .  S
O1005      C1006   1.273       .  A
C1007      C1025   1.470       .  S
C1010      C1328   1.478       .  S
C1011      O1012   1.268       .  A
C1011      C1061   1.454       .  S
C1013      C1014   1.548       .  S
C1013      C1019   1.500       .  S
C1013      C1017   1.560       .  S
C1014      H1021   1.086       .  S
C1014      C1015   1.391       .  D
C1015      C1016   1.546       .  S
C1016      C1020   1.585       .  S
C1016      C1018   1.553       .  S
C1016      H1022   1.110       .  S
C1017      H1023   1.086       .  S
C1017      C1018   1.388       .  D
C1019      H1024   1.081       .  S
C1019      C1020   1.337       .  D
C1025      C1026   1.401       .  A
C1025      C1030   1.413       .  A
C1026      C1027   1.400       .  A
C1026      H1035   1.084       .  S
C1027      C1028   1.412       .  A
C1027      S1031   1.802       .  S
C1028      C1029   1.399       .  A
C1029      C1030   1.400       .  A
C1029      H1036   1.084       .  S
S1031      H1034   1.405       .  S
S1032      H1033   1.405       .  S
C1037      C1038   1.407       .  A
C1037      C1042   1.429       .  A
C1038      C1039   1.390       .  A
C1038      H1047   1.083       .  S
C1039      C1040   1.412       .  A
C1039      S1043   1.799       .  S
C1040      C1041   1.402       .  A
C1041      C1042   1.409       .  A
C1041      H1048   1.084       .  S
C1042      S1044   1.800       .  S
S1043      H1046   1.406       .  S
S1044      H1045   1.407       .  S
C1049      C1050   1.402       .  A
C1049      C1054   1.428       .  A
C1050      C1051   1.400       .  A
C1050      H1059   1.084       .  S
C1051      C1052   1.420       .  A
C1051      S1055   1.799       .  S
C1052      C1053   1.398       .  A
C1053      C1054   1.400       .  A
C1053      H1060   1.084       .  S
C1054      S1056   1.804       .  S
S1055      H1058   1.408       .  S
S1056      H1057   1.405       .  S
C1061      C1062   1.399       .  A
C1061      C1066   1.405       .  A
C1062      C1063   1.390       .  A
C1062      H1071   1.081       .  S
C1063      C1064   1.405       .  A
C1063      S1067   1.809       .  S
C1064      C1065   1.403       .  A
C1065      C1066   1.404       .  A
C1065      H1072   1.082       .  S
C1066      S1068   1.804       .  S
S1067      H1070   1.406   1_556  S
S1068      H1069   1.407       .  S
C1073      C1074   1.401       .  A
C1073      C1078   1.401       .  A
C1074      C1075   1.401       .  A
C1074      H1083   1.082       .  S
C1075      C1076   1.418       .  A
C1075      S1079   1.810       .  S
C1076      C1077   1.417       .  A
C1077      C1078   1.396       .  A
C1077      H1084   1.078       .  S
C1078      S1080   1.805       .  S
S1079      H1082   1.407       .  S
S1080      H1081   1.404       .  S
C1085      C1086   1.402       .  A
C1085      C1090   1.409       .  A
C1086      C1087   1.389       .  A
C1086      H1095   1.083       .  S
C1087      C1088   1.423       .  A
C1087      S1091   1.810       .  S
C1088      C1089   1.418       .  A
C1089      C1090   1.407       .  A
C1089      H1096   1.076       .  S
C1090      S1092   1.800       .  S
S1091      H1094   1.407       .  S
S1092      H1093   1.408       .  S
C1097      C1098   1.402       .  A
C1097      C1102   1.408       .  A
C1098      C1099   1.396       .  A
C1098      H1107   1.082       .  S
C1099      C1100   1.408       .  A
C1099      S1103   1.804       .  S
C1100      C1101   1.403       .  A
C1101      C1102   1.400       .  A
C1101      H1108   1.084       .  S
C1102      S1104   1.801       .  S
S1103      H1106   1.405       .  S
S1104      H2513   1.406       .  S
H1105      S2512   1.406       .  S
C1109      C1110   1.403       .  A
C1109      C1114   1.410       .  A
C1110      C1111   1.402       .  A
C1110      H1119   1.078       .  S
C1111      C1112   1.412       .  A
C1111      S1115   1.808       .  S
C1112      C1113   1.408       .  A
C1113      C1114   1.403       .  A
C1113      H1120   1.082       .  S
C1114      S1116   1.804       .  S
S1115      H1118   1.407       .  S
S1116      H1117   1.407       .  S
C1121      C1122   1.404       .  A
C1121      C1126   1.409       .  A
C1122      C1123   1.414       .  A
C1122      H1131   1.080       .  S
C1123      C1124   1.423       .  A
C1123      S1127   1.805       .  S
C1124      C1125   1.406       .  A
C1125      C1126   1.396       .  A
C1125      H1132   1.084       .  S
C1126      S1128   1.807       .  S
S1127      H1130   1.407       .  S
S1128      H1129   1.408       .  S
C1133      C1134   1.394       .  A
C1133      C1138   1.409       .  A
C1134      C1135   1.393       .  A
C1134      H1143   1.084       .  S
C1135      C1136   1.428       .  A
C1135      S1139   1.813       .  S
C1136      C1137   1.403       .  A
C1137      C1138   1.398       .  A
C1137      H1144   1.081       .  S
S1139      H1142   1.407       .  S
S1140      H1141   1.407       .  S
C1145      C1146   1.408       .  A
C1145      C1150   1.401       .  A
C1146      C1147   1.400       .  A
C1146      H1155   1.083   1_556  S
C1147      C1148   1.400       .  A
C1147      S1151   1.794       .  S
C1148      C1149   1.416       .  A
C1149      C1150   1.397       .  A
C1149      H1156   1.079       .  S
C1150      S1152   1.805       .  S
S1151      H1154   1.404       .  S
S1152      H1153   1.405       .  S
C1157      C1158   1.404       .  A
C1157      C1162   1.439       .  A
C1158      C1159   1.392       .  A
C1158      H1167   1.082       .  S
C1159      C1160   1.401       .  A
C1159      S1163   1.796       .  S
C1160      C1161   1.388       .  A
C1161      C1162   1.402       .  A
C1161      H1168   1.083       .  S
C1162      S1164   1.808       .  S
S1163      H1166   1.406       .  S
S1164      H1165   1.407       .  S
C1169      C1170   1.413       .  A
C1169      C1174   1.416   1_545  A
C1170      C1171   1.392       .  A
C1170      H1179   1.081       .  S
C1171      C1172   1.402       .  A
C1171      S1175   1.804       .  S
C1172      C1173   1.407   1_545  A
C1173      C1174   1.408       .  A
C1173      H1180   1.084       .  S
C1174      S2584   1.804       .  S
S1175      H1178   1.407       .  S
S1176      C2582   1.803       .  S
S1176      H1177   1.406       .  S
C1181      C1182   1.408       .  A
C1181      C1186   1.411   1_545  A
C1182      C1183   1.403       .  A
C1182      H1191   1.083       .  S
C1183      C1184   1.418       .  A
C1183      S1187   1.803       .  S
C1184      C1185   1.416   1_545  A
C1185      C1186   1.403       .  A
C1185      H2600   1.078       .  S
C1186      S2596   1.803       .  S
S1187      H1190   1.408       .  S
S1188      C2594   1.803       .  S
S1188      H1189   1.407       .  S
H1192      C2593   1.078       .  S
C1193      C1194   1.406       .  A
C1193      C1198   1.399       .  A
C1194      C1195   1.407       .  A
C1194      H1203   1.083       .  S
C1195      C1196   1.414       .  A
C1195      S1199   1.807       .  S
C1196      C1197   1.420       .  A
C1197      C1198   1.396       .  A
C1197      H1204   1.080       .  S
C1198      S1200   1.804       .  S
S1199      H1202   1.407       .  S
S1200      H1201   1.406       .  S
C1205      C1206   1.400       .  A
C1205      C1210   1.434       .  A
C1206      C1207   1.395       .  A
C1206      H1215   1.075       .  S
C1207      C1208   1.420       .  A
C1207      S1211   1.806       .  S
C1208      C1209   1.395       .  A
C1209      C1210   1.406       .  A
C1209      H1216   1.083       .  S
C1210      S1212   1.811       .  S
S1211      H1214   1.407       .  S
S1212      H1213   1.407       .  S
C1217      C1218   1.403       .  A
C1217      C1222   1.423       .  A
C1218      C1219   1.385       .  A
C1218      H1227   1.076       .  S
C1219      C1220   1.409       .  A
C1219      S1223   1.807       .  S
C1220      C1221   1.401       .  A
C1221      C1222   1.405       .  A
C1221      H1228   1.082       .  S
C1222      S2632   1.802       .  S
S1223      H1226   1.408       .  S
S1224      C2630   1.801       .  S
S1224      H1225   1.407       .  S
C1229      C1230   1.410       .  A
C1229      C1234   1.413       .  A
C1230      C1231   1.403       .  A
C1230      H1239   1.082       .  S
C1231      C1232   1.414       .  A
C1231      S1235   1.800       .  S
C1232      C1233   1.414       .  A
C1233      C1234   1.400       .  A
C1233      H1240   1.081       .  S
C1234      S2644   1.810       .  S
S1235      H1238   1.407       .  S
S1236      C2642   1.810   1_545  S
S1236      H1237   1.406       .  S
C1241      C1242   1.391       .  A
C1241      C1246   1.413       .  A
C1242      C1243   1.391       .  A
C1242      H1251   1.085       .  S
C1243      C1244   1.417       .  A
C1243      S1247   1.790       .  S
C1244      C1245   1.398       .  A
C1245      C1246   1.399       .  A
C1245      H1252   1.084       .  S
C1246      S1248   1.800   1_455  S
S1247      H1250   1.403       .  S
S1248      H1249   1.405       .  S
C1253      C1254   1.402       .  A
C1253      C1258   1.412       .  A
C1254      C1255   1.388       .  A
C1254      H1263   1.084       .  S
C1255      C1256   1.407       .  A
C1255      S1259   1.801       .  S
C1256      C1257   1.409       .  A
C1257      C1258   1.410       .  A
C1257      H1264   1.084       .  S
C1258      S1260   1.805       .  S
S1259      H1262   1.406       .  S
S1260      H1261   1.404       .  S
C1265      C1266   1.405   1_545  A
C1265      C1270   1.405       .  A
C1266      C1267   1.402       .  A
C1266      H1275   1.084       .  S
C1267      C1268   1.412   1_565  A
C1267      S2679   1.802       .  S
C1268      C1269   1.410       .  A
C1269      C1270   1.384       .  A
C1269      H1276   1.083       .  S
C1270      S1272   1.809       .  S
S1271      C2675   1.801       .  S
S1271      H1274   1.401       .  S
S1272      H1273   1.407       .  S
C1277      C1278   1.413   1_545  A
C1277      C1282   1.414       .  A
C1278      C1279   1.401       .  A
C1278      H2695   1.077       .  S
C1279      C1280   1.415   1_565  A
C1279      S1283   1.805       .  S
C1280      C1281   1.406       .  A
C1281      C1282   1.402       .  A
C1281      H1288   1.083       .  S
C1282      S1284   1.804       .  S
S1284      H1285   1.407       .  S
H1287      C2686   1.078       .  S
C1289      C1290   1.410       .  A
C1289      C1294   1.422       .  A
C1290      C1291   1.402       .  A
C1290      H1299   1.083       .  S
C1291      C1292   1.412       .  A
C1291      S1295   1.804       .  S
C1292      C1293   1.403       .  A
C1293      C1294   1.407       .  A
C1293      H2708   1.083       .  S
C1294      S2704   1.799       .  S
S1295      H1298   1.407       .  S
S1296      C2702   1.800       .  S
S1296      H2705   1.408       .  S
H1297      S2704   1.408       .  S
H1300      C2701   1.083       .  S
C1301      C1302   1.405       .  A
C1301      C1306   1.407       .  A
C1302      C1303   1.396       .  A
C1302      H1311   1.084       .  S
C1303      C1304   1.417       .  A
C1303      S1307   1.805       .  S
C1304      C1305   1.414       .  A
C1305      C1306   1.401       .  A
C1305      H1312   1.083       .  S
C1306      S1308   1.799       .  S
S1307      H1310   1.408       .  S
S1308      H1309   1.407       .  S
C1313      C1314   1.401       .  A
C1313      C1318   1.432       .  A
C1314      C1315   1.403       .  A
C1314      H1323   1.082       .  S
C1315      C1316   1.424       .  A
C1315      S1319   1.811       .  S
C1316      C1317   1.394       .  A
C1317      C1318   1.397       .  A
C1317      H1324   1.082       .  S
C1318      S1320   1.805       .  S
S1319      H1322   1.407       .  S
S1320      H1321   1.406       .  S
C1325      C1326   1.404       .  A
C1325      C1330   1.414       .  A
C1326      C1327   1.399       .  A
C1326      H1335   1.080       .  S
C1327      C1328   1.413       .  A
C1327      S1331   1.799       .  S
C1328      C1329   1.408       .  A
C1329      C1330   1.401       .  A
C1329      H1336   1.084       .  S
C1330      S1332   1.806       .  S
S1331      H1334   1.406       .  S
S1332      H1333   1.407       .  S
C1337      C1338   1.409       .  A
C1337      C1342   1.404       .  A
C1338      C1339   1.407       .  A
C1338      H1347   1.084       .  S
C1339      C1340   1.409       .  A
C1339      S1343   1.802       .  S
C1340      C1341   1.407       .  A
C1341      C1342   1.388       .  A
C1341      H1348   1.084       .  S
C1342      S1344   1.806       .  S
S1343      H1346   1.406       .  S
S1344      H1345   1.406       .  S
C1349      C1350   1.405       .  A
C1349      C1354   1.432       .  A
C1350      C1351   1.386       .  A
C1350      H1359   1.075       .  S
C1351      C1352   1.414       .  A
C1351      S1355   1.799       .  S
C1352      C1353   1.402       .  A
C1353      C1354   1.416       .  A
C1353      H1360   1.082       .  S
C1354      S1356   1.807       .  S
S1355      H1358   1.407       .  S
S1356      H1357   1.407       .  S
C1361      C1362   1.415       .  A
C1361      C1366   1.406       .  A
C1362      C1363   1.394       .  A
C1362      H1371   1.078       .  S
C1363      C1364   1.398       .  A
C1363      S1367   1.804       .  S
C1364      C1365   1.409       .  A
C1365      C1366   1.403       .  A
C1365      H1372   1.082       .  S
C1366      S1368   1.803       .  S
S1367      H1370   1.406       .  S
S1368      H1369   1.403       .  S
C1373      C1374   1.384       .  A
C1373      C1378   1.413       .  A
C1374      C1375   1.389       .  A
C1374      H1383   1.084       .  S
C1375      C1376   1.434       .  A
C1375      S1379   1.803       .  S
C1376      C1377   1.398       .  A
C1377      C1378   1.397       .  A
C1377      H1384   1.084       .  S
C1378      S1380   1.794       .  S
S1379      H1382   1.408       .  S
S1380      H1381   1.407       .  S
C1385      C1386   1.413       .  A
C1385      C1390   1.414       .  A
C1386      C1387   1.406       .  A
C1386      H1395   1.083       .  S
C1387      C1388   1.411       .  A
C1387      S1391   1.803       .  S
C1388      C1389   1.406       .  A
C1389      C1390   1.393       .  A
C1389      H1396   1.079       .  S
C1390      S1392   1.806       .  S
S1391      H1394   1.405       .  S
S1392      H1393   1.407       .  S
C1397      C1398   1.413       .  A
C1397      C1402   1.420       .  A
C1398      C1399   1.384       .  A
C1398      H1407   1.080       .  S
C1399      C1400   1.402       .  A
C1399      S1403   1.813       .  S
C1400      C1401   1.411       .  A
C1401      C1402   1.422       .  A
C1401      H1408   1.083       .  S
C1402      S1404   1.801       .  S
S1403      H1406   1.407       .  S
S1404      H1405   1.407       .  S
C1409      C1410   1.569       .  S
C1409      C1415   1.546       .  S
C1409      C1413   1.539       .  S
C1409      C2101   1.554       .  S
C1410      H1417   1.086       .  S
C1410      C1411   1.385       .  D
C1411      C1412   1.508       .  S
C1411      C2065   1.498       .  S
C1412      C1416   1.536       .  S
C1412      C1414   1.552       .  S
C1412      H1418   1.111       .  S
C1413      H1419   1.079       .  S
C1413      C1414   1.376       .  D
C1414      C2092   1.488       .  S
C1415      H1420   1.088       .  S
C1415      C1416   1.334       .  D
C1416      C2080   1.490       .  S
C1421      C1422   1.526       .  S
C1421      C1427   1.544       .  S
C1421      C1425   1.574       .  S
C1421      C2053   1.535       .  S
C1422      H1429   1.084       .  S
C1422      C1423   1.360       .  D
C1423      C1424   1.547       .  S
C1423      C2041   1.472       .  S
C1424      C1428   1.532       .  S
C1424      C1426   1.519       .  S
C1424      H1430   1.107       .  S
C1425      H1431   1.083       .  S
C1425      C1426   1.372       .  D
C1426      C2029   1.491       .  S
C1427      H1432   1.087       .  S
C1427      C1428   1.354       .  D
C1428      C2017   1.503       .  S
O1433      C1448   1.261       .  A
O1433     Al1441   1.928       .  S
C1434      O1444   1.265       .  A
C1434      O1435   1.264       .  A
C1434      C1993   1.508       .  S
O1435     Al1437   1.929       .  S
O1436      C1438   1.268       .  A
O1436     Al1437   1.950       .  S
Al1437     O1445   1.930       .  S
Al1437     O1447   1.947       .  S
Al1437     O1446   1.802       .  S
C1438      C1479   1.520       .  S
C1438      O1451   1.270       .  A
O1439      C1449   1.265       .  A
O1439     Al1441   1.928       .  S
O1440      C1453   1.260       .  A
O1440     Al1450   1.889       .  S
Al1441     O1454   1.912       .  S
Al1441     O1451   1.944       .  S
Al1441     O1446   1.801       .  S
O1442      C1449   1.255       .  A
O1442     Al1450   1.862       .  S
O1443      C1452   1.252       .  A
O1443     Al1450   1.849       .  S
O1444     Al1450   1.906       .  S
O1445      C1452   1.266       .  A
O1446     Al1450   1.778       .  S
O1447      C1448   1.269       .  A
C1448      C1562   1.515       .  S
C1449      C2044   1.474       .  S
C1452      C2005   1.477       .  S
C1453      O1454   1.261       .  A
C1453      C2089   1.485       .  S
O1455      C1470   1.280       .  A
O1455     Al2167   1.968   1_554  S
C1456      O1466   1.257       .  A
C1456      O1457   1.263       .  A
C1456      C1969   1.454       .  S
O1457     Al2163   1.907       .  S
O1458      C1460   1.269       .  A
O1458     Al2163   1.906       .  S
Al1459     O2161   1.900       .  S
Al1459     O2162   1.920       .  S
Al1459     O1467   1.915   1_556  S
Al1459     O1469   1.926   1_556  S
Al1459     O1468   1.784       .  S
C1460      C1484   1.503       .  S
C1460      O1473   1.267       .  A
O1461      C1471   1.263       .  A
O1461     Al1463   1.931       .  S
O1462      C1475   1.255       .  A
O1462     Al1472   1.853   1_554  S
Al1463     O2159   1.969       .  S
Al1463     O2180   1.954       .  S
Al1463     O1473   1.968       .  S
Al1463     O2172   1.794       .  S
O1464      C1471   1.256       .  A
O1464     Al2176   1.886       .  S
O1465      C1474   1.256       .  A
O1465     Al1472   1.892   1_554  S
O1466     Al2176   1.862       .  S
O1467      C1474   1.257       .  A
O1468     Al2167   1.795       .  S
O1468     Al1472   1.748       .  S
O1469      C1470   1.262       .  A
C1470      C1564   1.494       .  S
C1471      C2056   1.479       .  S
Al1472     O2168   1.889       .  S
Al1472     O2170   1.877       .  S
C1474      C1984   1.491       .  S
C1475      O1476   1.268       .  A
C1475      C2104   1.476       .  S
O1476     Al2167   1.939   1_554  S
C1477      C1478   1.555       .  S
C1477      C1483   1.493       .  S
C1477      C1481   1.548   1_655  S
C1477      C1494   1.535   1_655  S
C1478      H1485   1.086       .  S
C1478      C1479   1.388       .  D
C1480      C1484   1.587       .  S
C1480      C1482   1.560       .  S
C1480      H1486   1.110       .  S
C1481      H1487   1.086       .  S
C1482      C1516   1.506   1_655  S
C1483      H1488   1.084       .  S
O1489      C1504   1.261       .  A
O1489     Al2201   1.941   1_554  S
C1490      O1500   1.266       .  A
C1490      O1491   1.255       .  A
C1490      C1936   1.495       .  S
O1491     Al2197   1.876       .  S
O1492      C1494   1.260       .  A
O1492     Al2197   1.909       .  S
Al1493     O2195   1.878       .  S
Al1493     O2196   1.908       .  S
Al1493     O1501   1.917   1_556  S
Al1493     O1503   1.926   1_556  S
Al1493     O1502   1.777       .  S
C1494      O1507   1.280   1_455  A
O1495      C1505   1.260       .  A
O1495     Al1497   1.899       .  S
O1496      C1509   1.257       .  A
O1496     Al1506   1.880   1_554  S
Al1497     O2193   1.940       .  S
Al1497     O2214   1.937       .  S
Al1497     O1507   1.977   1_455  S
Al1497     O2206   1.794       .  S
O1498      C1505   1.261       .  A
O1498     Al2210   1.893       .  S
O1499      C1508   1.256       .  A
O1499     Al1506   1.871   1_554  S
O1500     Al2210   1.918       .  S
O1501      C1508   1.268       .  A
O1502     Al2201   1.797       .  S
O1502     Al1506   1.775       .  S
O1503      C1504   1.269       .  A
C1504      C1557   1.532   1_455  S
C1505      C1945   1.462       .  S
Al1506     O2202   1.888       .  S
Al1506     O2204   1.917       .  S
C1508      C1924   1.475       .  S
C1509      O1510   1.263       .  A
C1509      C1957   1.469       .  S
O1510     Al2201   1.932   1_554  S
O1511      C1526   1.278   1_655  A
O1511     Al1519   1.973   1_655  S
C1512      O1522   1.266       .  A
C1512      O1513   1.268       .  A
C1512      C1876   1.460       .  S
O1513     Al1515   1.904       .  S
O1514      C1516   1.267       .  A
O1514     Al1515   1.936       .  S
Al1515     O1523   1.923       .  S
Al1515     O1525   1.893       .  S
Al1515     O1524   1.790       .  S
C1516      O1529   1.264       .  A
O1517      C1527   1.268       .  A
O1517     Al1519   1.947       .  S
O1518      C1531   1.261       .  A
O1518     Al1528   1.899       .  S
Al1519     O1532   1.895       .  S
Al1519     O1529   1.945       .  S
Al1519     O1524   1.793       .  S
O1520      C1527   1.254       .  A
O1520     Al1528   1.869       .  S
O1521      C1530   1.257       .  A
O1521     Al1528   1.895       .  S
O1522     Al1528   1.901       .  S
O1523      C1530   1.257       .  A
O1524     Al1528   1.765       .  S
O1525      C1526   1.265       .  A
C1526      C1559   1.505   1_455  S
C1527      C1912   1.485       .  S
C1530      C1885   1.487       .  S
C1531      O1532   1.259       .  A
C1531      C1897   1.464       .  S
C1533      C1534   1.517       .  S
C1533      C1539   1.525       .  S
C1533      C1537   1.583       .  S
C1533      C1909   1.535       .  S
C1534      H1541   1.086       .  S
C1534      C1535   1.351       .  D
C1535      C1536   1.552       .  S
C1535      C1948   1.479       .  S
C1536      C1540   1.555       .  S
C1536      C1538   1.518       .  S
C1536      H1542   1.101       .  S
C1537      H1543   1.084       .  S
C1537      C1538   1.394       .  D
C1538      C1861   1.511       .  S
C1539      H1544   1.089       .  S
C1539      C1540   1.349       .  D
C1540      C1852   1.497       .  S
C1545      C1546   1.573       .  S
C1545      C1551   1.547       .  S
C1545      C1549   1.529       .  S
C1545      C1900   1.539       .  S
C1546      H1553   1.085       .  S
C1546      C1547   1.383       .  D
C1547      C1548   1.521       .  S
C1547      C1825   1.494       .  S
C1548      C1552   1.523       .  S
C1548      C1550   1.536       .  S
C1548      H1554   1.107       .  S
C1549      H1555   1.086       .  S
C1549      C1550   1.358       .  D
C1550      C1960   1.479       .  S
C1551      H1556   1.082       .  S
C1551      C1552   1.354       .  D
C1552      C1840   1.496       .  S
C1557      C1558   1.540   1_655  S
C1557      C1563   1.500       .  S
C1557      C1561   1.560       .  S
C1558      H1565   1.087       .  S
C1559      C1560   1.548       .  S
C1560      C1564   1.581       .  S
C1560      H1566   1.110       .  S
C1561      H1567   1.085       .  S
C1561      C1562   1.392       .  D
C1563      H1568   1.081       .  S
O1569      C1584   1.272       .  A
O1569     Al1577   1.963       .  S
C1570      O1580   1.258       .  A
C1570      O1571   1.261       .  A
C1570      C1828   1.497       .  S
O1571     Al1573   1.914       .  S
O1572      C1574   1.282       .  A
O1572     Al1573   1.974       .  S
Al1573     O1581   1.928       .  S
Al1573     O1583   1.927       .  S
Al1573     O1582   1.775       .  S
C1574      C1724   1.509       .  S
C1574      O1587   1.262       .  A
O1575      C1585   1.266       .  A
O1575     Al1577   1.927       .  S
O1576      C1589   1.261       .  A
O1576     Al1586   1.901       .  S
Al1577     O1590   1.908       .  S
Al1577     O1587   1.929       .  S
Al1577     O1582   1.790       .  S
O1578      C1585   1.262       .  A
O1578     Al1586   1.896       .  S
O1579      C1588   1.260       .  A
O1579     Al1586   1.890       .  S
O1580     Al1586   1.895       .  S
O1581      C1588   1.269       .  A
O1582     Al1586   1.776       .  S
O1583      C1584   1.257       .  A
C1584      C1637   1.547       .  S
C1585      C1816   1.484       .  S
C1588      C1864   1.469       .  S
C1589      O1590   1.264       .  A
C1589      C1804   1.459       .  S
O1591      C1606   1.275       .  A
O1591     Al1599   1.977       .  S
C1592      O1602   1.257       .  A
C1592      O1593   1.257       .  A
C1592      C1837   1.460       .  S
O1593     Al2299   1.901       .  S
O1594      C1596   1.274       .  A
O1594     Al2299   1.961       .  S
Al1595     O2297   1.900       .  S
Al1595     O2298   1.954       .  S
Al1595     O1603   1.943       .  S
Al1595     O1605   1.885       .  S
Al1595     O1604   1.784       .  S
C1596      C1719   1.508       .  S
C1596      O1609   1.258       .  A
O1597      C1607   1.269       .  A
O1597     Al2303   1.960   1_554  S
O1598      C1611   1.260       .  A
O1598     Al1608   1.902       .  S
Al1599     O2301   1.968       .  S
Al1599     O1612   1.901       .  S
Al1599     O2313   1.889       .  S
Al1599     O1604   1.788       .  S
O1600      C1607   1.256       .  A
O1600     Al2312   1.855       .  S
O1601      C1610   1.261       .  A
O1601     Al1608   1.882       .  S
O1602     Al2312   1.882       .  S
O1603      C1610   1.269       .  A
O1604     Al1608   1.757       .  S
O1605      C1606   1.256       .  A
C1606      C1639   1.506       .  S
C1607      C1789   1.488       .  S
Al1608     O2304   1.858       .  S
Al1608     O2306   1.878       .  S
O1609     Al2303   1.897   1_554  S
C1610      C1849   1.465       .  S
C1611      O1612   1.261       .  A
C1611      C1777   1.460       .  S
C1613      C1614   1.561       .  S
C1613      C1619   1.548       .  S
C1613      C1617   1.521       .  S
C1613      C1780   1.536       .  S
C1614      H1621   1.084       .  S
C1615      C1616   1.526       .  S
C1615      C1933   1.496       .  S
C1616      C1618   1.537       .  S
C1616      H1622   1.106       .  S
C1617      H1623   1.086       .  S
C1618      C1801   1.471       .  S
C1619      H1624   1.081       .  S
C1619      C1620   1.366       .  D
C1620      C1873   1.498       .  S
C1625      C1626   1.536       .  S
C1625      C1631   1.547       .  S
C1625      C1629   1.552       .  S
C1625      C1792   1.540       .  S
C1626      H1633   1.080       .  S
C1627      C1628   1.547       .  S
C1627      C1813   1.491       .  S
C1628      C1630   1.533       .  S
C1628      H1634   1.104       .  S
C1629      H1635   1.084       .  S
C1630      C1921   1.497       .  S
C1631      H1636   1.074       .  S
C1631      C1632   1.375       .  D
C1632      C1888   1.531       .  S
C1637      C1638   1.553       .  S
C1637      C1643   1.492       .  S
C1637      C1641   1.559       .  S
C1638      H1645   1.086       .  S
C1638      C1639   1.386       .  D
C1639      C1640   1.542       .  S
C1640      C1644   1.578       .  S
C1640      C1642   1.559       .  S
C1640      H1646   1.110       .  S
C1641      H1647   1.085       .  S
C1641      C1642   1.396       .  D
C1642      C1710   1.526       .  S
C1643      H1648   1.082       .  S
C1643      C1644   1.334       .  D
C1644      C1676   1.487       .  S
C1649      C1650   1.568       .  S
C1649      C1655   1.539       .  S
C1649      C1653   1.518       .  S
C1649      C1753   1.533       .  S
C1650      H1657   1.086       .  S
C1651      C1652   1.529       .  S
C1651      C1996   1.505       .  S
C1652      C1654   1.538       .  S
C1652      H1658   1.107       .  S
C1654      C1768   1.468       .  S
C1655      H1660   1.084       .  S
C1655      C1656   1.368       .  D
C1656      C1972   1.494       .  S
O1661      C1676   1.278       .  A
O1661     Al1669   1.937       .  S
C1662      O1672   1.251       .  A
C1662      O1663   1.264       .  A
C1662      C2077   1.457       .  S
O1663     Al1665   1.895       .  S
O1664      C1666   1.249       .  A
O1664     Al1665   1.930       .  S
Al1665     O1673   1.866       .  S
Al1665     O1675   1.938       .  S
Al1665     O1674   1.765       .  S
C1666      C1717   1.546       .  S
C1666      O1679   1.261       .  A
O1667      C1677   1.282       .  A
O1667     Al1669   1.918       .  S
O1668      C1681   1.250       .  A
O1668     Al1678   1.902       .  S
Al1669     O1682   1.906       .  S
Al1669     O1679   1.949       .  S
Al1669     O1674   1.788       .  S
O1670      C1677   1.280       .  A
O1670     Al1678   1.932       .  S
O1671      C1680   1.263       .  A
O1671     Al1678   1.896       .  S
O1672     Al1678   1.855       .  S
O1673      C1680   1.249       .  A
O1674     Al1678   1.767       .  S
O1675      C1676   1.285       .  A
C1677      C1744   1.475       .  S
C1680      C2020   1.487       .  S
C1681      O1682   1.247       .  A
C1681      C1756   1.484       .  S
C1683      C1684   1.523       .  S
C1683      C1689   1.539       .  S
C1683      C1687   1.559       .  S
C1683      C1741   1.537       .  S
C1685      C1686   1.551       .  S
C1685      C1732   1.480       .  S
C1686      C1688   1.535       .  S
C1686      H1692   1.099       .  S
C1687      H1693   1.086       .  S
C1688      C2008   1.502       .  S
C1689      H1694   1.073       .  S
C1689      C1690   1.373       .  D
C1690      C1981   1.529       .  S
O1695      C1710   1.260       .  A
O1695     Al2407   1.916       .  S
C1696      O1706   1.264       .  A
C1696      O1697   1.266       .  A
C1696      C2068   1.468       .  S
O1697     Al2403   1.924       .  S
O1698      C1700   1.262       .  A
O1698     Al2403   1.921       .  S
Al1699     O2401   1.930       .  S
Al1699     O2402   1.905       .  S
Al1699     O1707   1.921       .  S
Al1699     O1709   1.983       .  S
Al1699     O1708   1.787       .  S
C1700      C1722   1.524       .  S
C1700      O1713   1.271       .  A
O1701      C1711   1.259       .  A
O1701     Al1703   1.910       .  S
O1702      C1715   1.257       .  A
O1702     Al1712   1.876       .  S
Al1703     O2399   1.915   1_554  S
Al1703     O2420   1.937   1_554  S
Al1703     O1713   1.967       .  S
Al1703     O2412   1.796       .  S
O1704      C1711   1.259       .  A
O1704     Al2416   1.903       .  S
O1705      C1714   1.253       .  A
O1705     Al1712   1.869       .  S
O1706     Al2416   1.895       .  S
O1707      C1714   1.264       .  A
O1708     Al2407   1.796       .  S
O1708     Al1712   1.776       .  S
O1709      C1710   1.276       .  A
C1711      C1729   1.469       .  S
Al1712     O2408   1.902       .  S
Al1712     O2410   1.895       .  S
C1714      C2032   1.476       .  S
C1715      O1716   1.266       .  A
C1715      C1765   1.457       .  S
O1716     Al2407   1.932       .  S
C1717      C1718   1.552       .  S
C1717      C1723   1.501       .  S
C1717      C1721   1.556       .  S
C1718      H1725   1.086       .  S
C1718      C1719   1.392       .  D
C1719      C1720   1.549       .  S
C1720      C1724   1.588       .  S
C1720      C1722   1.552       .  S
C1720      H1726   1.110       .  S
C1721      H1727   1.086       .  S
C1721      C1722   1.386       .  D
C1723      H1728   1.080       .  S
C1723      C1724   1.338       .  D
C1729      C1730   1.401       .  A
C1729      C1734   1.412       .  A
C1730      C1731   1.400       .  A
C1730      H1739   1.084       .  S
C1731      C1732   1.411       .  A
C1731      S1735   1.803       .  S
C1732      C1733   1.399       .  A
C1733      C1734   1.400       .  A
C1733      H1740   1.084       .  S
C1734      S2440   1.801       .  S
S1735      H1738   1.405       .  S
S1736      C2438   1.800       .  S
S1736      H1737   1.406       .  S
C1741      C1742   1.407       .  A
C1741      C1746   1.431       .  A
C1742      C1743   1.387       .  A
C1742      H1751   1.084       .  S
C1743      C1744   1.407       .  A
C1743      S1747   1.797       .  S
C1744      C1745   1.399       .  A
C1745      C1746   1.406       .  A
C1745      H1752   1.083       .  S
C1746      S1748   1.800       .  S
S1747      H1750   1.407       .  S
S1748      H1749   1.407       .  S
C1753      C1754   1.403       .  A
C1753      C1758   1.427       .  A
C1754      C1755   1.399       .  A
C1754      H1763   1.083       .  S
C1755      C1756   1.417       .  A
C1755      S1759   1.799       .  S
C1756      C1757   1.399       .  A
C1757      C1758   1.399       .  A
C1757      H1764   1.084       .  S
C1758      S1760   1.803       .  S
S1759      H1762   1.408       .  S
S1760      H1761   1.405       .  S
C1765      C1766   1.398       .  A
C1765      C1770   1.405       .  A
C1766      C1767   1.391       .  A
C1766      H1775   1.082       .  S
C1767      C1768   1.408       .  A
C1767      S1771   1.808       .  S
C1768      C1769   1.404       .  A
C1769      C1770   1.405       .  A
C1769      H1776   1.082       .  S
C1770      S1772   1.805       .  S
S1771      H1774   1.406       .  S
S1772      H1773   1.407       .  S
C1777      C1778   1.401       .  A
C1777      C1782   1.401       .  A
C1778      C1779   1.402       .  A
C1778      H1787   1.082       .  S
C1779      C1780   1.417       .  A
C1779      S1783   1.809       .  S
C1780      C1781   1.417       .  A
C1781      C1782   1.396       .  A
C1781      H1788   1.078       .  S
C1782      S1784   1.805       .  S
S1783      H1786   1.407       .  S
S1784      H1785   1.406       .  S
C1789      C1790   1.401       .  A
C1789      C1794   1.410       .  A
C1790      C1791   1.390       .  A
C1790      H1799   1.082       .  S
C1791      C1792   1.424       .  A
C1791      S1795   1.812       .  S
C1792      C1793   1.417       .  A
C1793      C1794   1.406       .  A
C1793      H1800   1.076       .  S
C1794      S1796   1.801       .  S
S1795      H1798   1.407       .  S
S1796      H1797   1.408       .  S
C1801      C1802   1.401       .  A
C1801      C1806   1.409       .  A
C1802      C1803   1.396       .  A
C1802      H1811   1.083       .  S
C1803      C1804   1.408       .  A
C1803      S1807   1.804       .  S
C1804      C1805   1.403       .  A
C1805      C1806   1.397       .  A
C1805      H1812   1.084       .  S
C1806      S1808   1.803       .  S
S1807      H1810   1.405       .  S
C1813      C1814   1.402       .  A
C1813      C1818   1.411       .  A
C1814      C1815   1.401       .  A
C1814      H1823   1.076       .  S
C1815      C1816   1.410       .  A
C1815      S1819   1.808       .  S
C1816      C1817   1.409       .  A
C1817      C1818   1.404       .  A
C1817      H1824   1.082       .  S
C1818      S1820   1.805       .  S
S1819      H1822   1.407       .  S
S1820      H1821   1.407       .  S
C1825      C1826   1.404       .  A
C1825      C1830   1.411       .  A
C1826      C1827   1.413       .  A
C1826      H1835   1.079       .  S
C1827      C1828   1.422       .  A
C1827      S1831   1.806       .  S
C1828      C1829   1.406       .  A
C1829      C1830   1.396       .  A
C1829      H1836   1.084       .  S
C1830      S1832   1.808       .  S
S1831      H1834   1.407       .  S
S1832      H1833   1.407       .  S
C1837      C1838   1.394       .  A
C1837      C1842   1.408       .  A
C1838      C1839   1.394       .  A
C1838      H1847   1.084       .  S
C1839      C1840   1.429       .  A
C1839      S1843   1.813       .  S
C1840      C1841   1.404       .  A
C1841      C1842   1.400       .  A
C1841      H1848   1.081       .  S
C1842      S2548   1.806       .  S
S1843      H1846   1.407       .  S
S1844      C2546   1.806       .  S
S1844      H1845   1.407       .  S
C1849      C1850   1.408       .  A
C1849      C1854   1.402       .  A
C1850      C1851   1.399       .  A
C1850      H1859   1.082       .  S
C1851      C1852   1.401       .  A
C1851      S1855   1.795       .  S
C1852      C1853   1.417       .  A
C1853      C1854   1.399       .  A
C1853      H1860   1.078       .  S
C1854      S1856   1.807       .  S
S1855      H1858   1.404       .  S
S1856      H1857   1.404       .  S
C1861      C1862   1.403       .  A
C1861      C1866   1.441       .  A
C1862      C1863   1.395       .  A
C1862      H1871   1.081       .  S
C1863      C1864   1.406       .  A
C1863      S1867   1.795       .  S
C1864      C1865   1.389       .  A
C1865      C1866   1.404       .  A
C1865      H1872   1.083       .  S
C1866      S1868   1.811       .  S
S1867      H1870   1.406       .  S
S1868      H1869   1.407       .  S
C1873      C1874   1.413       .  A
C1873      C1878   1.415       .  A
C1874      C1875   1.391       .  A
C1874      H1883   1.081       .  S
C1875      C1876   1.402       .  A
C1875      S1879   1.804       .  S
C1876      C1877   1.404       .  A
C1877      C1878   1.402       .  A
C1877      H1884   1.084       .  S
S1879      H1882   1.407       .  S
S1880      H1881   1.407       .  S
C1885      C1886   1.406       .  A
C1885      C1890   1.409       .  A
C1886      C1887   1.402       .  A
C1886      H1895   1.083       .  S
C1887      C1888   1.419       .  A
C1887      S1891   1.802       .  S
C1888      C1889   1.418       .  A
C1889      C1890   1.404       .  A
S1891      H1894   1.407       .  S
S1892      H1893   1.407       .  S
C1897      C1898   1.405       .  A
C1897      C1902   1.397       .  A
C1898      C1899   1.405       .  A
C1898      H1907   1.082       .  S
C1899      C1900   1.414       .  A
C1899      S1903   1.808       .  S
C1900      C1901   1.420       .  A
C1901      C1902   1.396       .  A
C1901      H1908   1.080       .  S
C1902      S1904   1.802       .  S
S1903      H1906   1.407       .  S
S1904      H1905   1.407       .  S
C1909      C1910   1.402       .  A
C1909      C1914   1.436       .  A
C1910      C1911   1.399       .  A
C1910      H1919   1.077       .  S
C1911      C1912   1.420       .  A
C1911      S1915   1.807       .  S
C1912      C1913   1.392       .  A
C1913      C1914   1.405       .  A
C1913      H1920   1.083       .  S
C1914      S1916   1.811       .  S
S1915      H1918   1.406       .  S
S1916      H1917   1.407   1_455  S
C1921      C1922   1.402       .  A
C1921      C1926   1.422   1_565  A
C1922      C1923   1.387       .  A
C1922      H1931   1.074       .  S
C1923      C1924   1.412       .  A
C1923      S1927   1.807       .  S
C1924      C1925   1.402       .  A
C1925      C1926   1.407   1_565  A
C1925      H1932   1.082   1_565  S
S1927      H1930   1.408       .  S
S1928      H1929   1.407       .  S
C1933      C1934   1.410       .  A
C1933      C1938   1.413       .  A
C1934      C1935   1.402       .  A
C1934      H1943   1.083       .  S
C1935      C1936   1.412       .  A
C1935      S1939   1.800       .  S
C1936      C1937   1.414       .  A
C1937      C1938   1.400       .  A
C1937      H1944   1.081   1_565  S
S1939      H1942   1.408       .  S
S1940      H1941   1.407       .  S
C1945      C1946   1.393       .  A
C1945      C1950   1.414       .  A
C1946      C1947   1.394       .  A
C1946      H1955   1.084       .  S
C1947      C1948   1.417       .  A
C1947      S1951   1.794       .  S
C1948      C1949   1.398       .  A
C1949      C1950   1.399       .  A
C1949      H1956   1.084       .  S
C1950      S1952   1.800   1_455  S
S1951      H1954   1.404       .  S
S1952      H1953   1.406       .  S
C1957      C1958   1.401       .  A
C1957      C1962   1.412       .  A
C1958      C1959   1.386       .  A
C1958      H1967   1.084       .  S
C1959      C1960   1.406       .  A
C1959      S1963   1.799       .  S
C1960      C1961   1.408       .  A
C1961      C1962   1.409       .  A
C1961      H1968   1.084       .  S
C1962      S1964   1.803       .  S
S1963      H1966   1.406       .  S
S1964      H1965   1.405       .  S
C1969      C1970   1.401       .  A
C1969      C1974   1.406       .  A
C1970      C1971   1.400       .  A
C1970      H1979   1.084       .  S
C1971      C1972   1.415       .  A
C1972      C1973   1.411       .  A
C1973      C1974   1.385       .  A
C1973      H1980   1.082       .  S
C1974      S1976   1.809       .  S
S1975      H1978   1.403       .  S
S1976      H1977   1.408       .  S
C1981      C1982   1.414       .  A
C1981      C1986   1.421       .  A
C1982      C1983   1.401       .  A
C1983      C1984   1.415       .  A
C1983      S1987   1.805       .  S
C1984      C1985   1.407       .  A
C1985      C1986   1.405       .  A
C1985      H1992   1.082       .  S
C1986      S1988   1.809       .  S
S1987      H2694   1.407       .  S
S1988      H1989   1.407       .  S
H1990      S2691   1.407       .  S
C1993      C1994   1.410       .  A
C1993      C1998   1.423   1_565  A
C1994      C1995   1.405       .  A
C1994      H2003   1.083       .  S
C1995      C1996   1.413       .  A
C1995      S1999   1.803       .  S
C1996      C1997   1.406   1_565  A
C1997      C1998   1.412       .  A
S1999      H2002   1.407       .  S
C2005      C2006   1.404       .  A
C2005      C2010   1.408   1_565  A
C2006      C2007   1.397       .  A
C2006      H2015   1.084       .  S
C2007      C2008   1.419       .  A
C2007      S2011   1.805       .  S
C2008      C2009   1.414   1_565  A
C2009      C2010   1.402       .  A
C2009      H2016   1.083       .  S
C2010      S2012   1.798       .  S
S2011      H2014   1.407       .  S
S2012      H2013   1.407       .  S
C2017      C2018   1.400       .  A
C2017      C2022   1.430       .  A
C2018      C2019   1.402       .  A
C2018      H2027   1.082       .  S
C2019      C2020   1.425       .  A
C2019      S2023   1.811       .  S
C2020      C2021   1.395       .  A
C2021      C2022   1.397       .  A
C2021      H2028   1.083       .  S
C2022      S2024   1.803       .  S
S2023      H2026   1.407       .  S
S2024      H2025   1.407       .  S
C2029      C2030   1.405       .  A
C2029      C2034   1.410       .  A
C2030      C2031   1.401       .  A
C2030      H2039   1.081       .  S
C2031      C2032   1.415       .  A
C2031      S2035   1.800       .  S
C2032      C2033   1.406       .  A
C2033      C2034   1.397       .  A
C2033      H2040   1.084       .  S
C2034      S2036   1.805       .  S
S2035      H2038   1.407       .  S
S2036      H2037   1.407       .  S
C2041      C2042   1.409       .  A
C2041      C2046   1.401       .  A
C2042      C2043   1.408       .  A
C2042      H2051   1.084       .  S
C2043      C2044   1.410       .  A
C2043      S2047   1.802       .  S
C2044      C2045   1.408       .  A
C2045      C2046   1.391       .  A
C2045      H2052   1.083       .  S
C2046      S2048   1.810       .  S
S2047      H2050   1.405       .  S
S2048      H2049   1.406       .  S
C2053      C2054   1.405       .  A
C2053      C2058   1.432       .  A
C2054      C2055   1.382       .  A
C2054      H2063   1.076       .  S
C2055      C2056   1.412       .  A
C2055      S2059   1.800       .  S
C2056      C2057   1.400       .  A
C2057      C2058   1.413       .  A
C2057      H2064   1.083       .  S
C2058      S2060   1.806       .  S
S2059      H2062   1.407       .  S
S2060      H2061   1.407       .  S
C2065      C2066   1.416       .  A
C2065      C2070   1.407       .  A
C2066      C2067   1.397       .  A
C2066      H2075   1.078       .  S
C2067      C2068   1.401       .  A
C2067      S2071   1.807       .  S
C2068      C2069   1.409       .  A
C2069      C2070   1.403       .  A
C2069      H2076   1.082       .  S
C2070      S2072   1.803       .  S
S2071      H2074   1.405       .  S
S2072      H2073   1.402       .  S
C2077      C2078   1.382       .  A
C2077      C2082   1.413       .  A
C2078      C2079   1.388       .  A
C2078      H2087   1.084       .  S
C2079      C2080   1.435       .  A
C2079      S2083   1.804       .  S
C2080      C2081   1.398       .  A
C2081      C2082   1.397       .  A
C2081      H2088   1.084       .  S
C2082      S2084   1.794       .  S
S2083      H2086   1.407       .  S
S2084      H2085   1.407       .  S
C2089      C2090   1.411       .  A
C2089      C2094   1.411       .  A
C2090      C2091   1.404       .  A
C2090      H2099   1.083       .  S
C2091      C2092   1.411       .  A
C2091      S2095   1.803       .  S
C2092      C2093   1.406       .  A
C2093      C2094   1.393       .  A
C2093      H2100   1.079       .  S
C2094      S2096   1.805       .  S
S2095      H2098   1.405       .  S
S2096      H2097   1.408       .  S
C2101      C2102   1.411       .  A
C2101      C2106   1.423       .  A
C2102      C2103   1.382       .  A
C2102      H2111   1.078       .  S
C2103      C2104   1.400       .  A
C2103      S2107   1.812       .  S
C2104      C2105   1.412       .  A
C2105      C2106   1.425       .  A
C2105      H2112   1.082       .  S
C2106      S2108   1.802       .  S
S2107      H2110   1.408       .  S
S2108      H2109   1.406       .  S
C2113      C2114   1.573       .  S
C2113      C2119   1.543       .  S
C2113      C2117   1.538       .  S
C2113      C2805   1.553       .  S
C2114      H2121   1.086       .  S
C2114      C2115   1.386       .  D
C2115      C2116   1.511       .  S
C2115      C2769   1.500       .  S
C2116      C2120   1.535       .  S
C2116      C2118   1.550       .  S
C2116      H2122   1.111       .  S
C2117      H2123   1.077       .  S
C2117      C2118   1.374       .  D
C2118      C2796   1.489       .  S
C2119      H2124   1.089       .  S
C2119      C2120   1.336       .  D
C2120      C2784   1.489       .  S
C2125      C2126   1.527       .  S
C2125      C2131   1.543       .  S
C2125      C2129   1.576       .  S
C2125      C2757   1.538       .  S
C2126      H2133   1.085       .  S
C2126      C2127   1.363       .  D
C2127      C2128   1.552       .  S
C2127      C2745   1.480       .  S
C2128      C2132   1.536       .  S
C2128      C2130   1.517       .  S
C2128      H2134   1.107       .  S
C2129      H2135   1.081       .  S
C2129      C2130   1.372       .  D
C2130      C2733   1.493       .  S
C2131      H2136   1.086       .  S
C2131      C2132   1.352       .  D
C2132      C2721   1.507       .  S
O2137      C2152   1.262       .  A
O2137     Al2145   1.933       .  S
C2138      O2148   1.263       .  A
C2138      O2139   1.262       .  A
C2138      C2697   1.503       .  S
O2139     Al2141   1.925       .  S
O2140      C2142   1.268       .  A
O2140     Al2141   1.943       .  S
Al2141     O2149   1.931       .  S
Al2141     O2151   1.942       .  S
Al2141     O2150   1.806       .  S
C2142      C2183   1.516       .  S
C2142      O2155   1.272       .  A
O2143      C2153   1.266       .  A
O2143     Al2145   1.939       .  S
O2144      C2157   1.259       .  A
O2144     Al2154   1.882       .  S
Al2145     O2158   1.908       .  S
Al2145     O2155   1.946       .  S
Al2145     O2150   1.796       .  S
O2146      C2153   1.254       .  A
O2146     Al2154   1.863       .  S
O2147      C2156   1.254       .  A
O2147     Al2154   1.852       .  S
O2148     Al2154   1.898       .  S
O2149      C2156   1.266       .  A
O2150     Al2154   1.774       .  S
O2151      C2152   1.267       .  A
C2152      C2266   1.517       .  S
C2153      C2748   1.482       .  S
C2156      C2709   1.477       .  S
C2157      O2158   1.261       .  A
C2157      C2793   1.481       .  S
O2159      C2174   1.280       .  A
C2160      O2170   1.260       .  A
C2160      O2161   1.263       .  A
C2160      C2673   1.455       .  S
O2162      C2164   1.272       .  A
Al2163     O2171   1.912       .  S
Al2163     O2173   1.926       .  S
Al2163     O2172   1.784       .  S
C2164      C2188   1.505       .  S
C2164      O2177   1.265       .  A
O2165      C2175   1.263       .  A
O2165     Al2167   1.929       .  S
O2166      C2179   1.253       .  A
O2166     Al2176   1.842       .  S
Al2167     O2177   1.962       .  S
O2168      C2175   1.257       .  A
O2169      C2178   1.257       .  A
O2169     Al2176   1.893       .  S
O2171      C2178   1.256       .  A
O2172     Al2176   1.744       .  S
O2173      C2174   1.263       .  A
C2174      C2268   1.494       .  S
C2175      C2760   1.482       .  S
C2178      C2688   1.490       .  S
C2179      O2180   1.271       .  A
C2179      C2808   1.485       .  S
C2181      C2182   1.552       .  S
C2181      C2187   1.494       .  S
C2181      C2185   1.547   1_655  S
C2181      C2198   1.530   1_655  S
C2182      H2189   1.086       .  S
C2182      C2183   1.386       .  D
C2184      C2188   1.588       .  S
C2184      C2186   1.563       .  S
C2184      H2190   1.110       .  S
C2185      H2191   1.086       .  S
C2186      C2220   1.512   1_655  S
C2187      H2192   1.082       .  S
O2193      C2208   1.259       .  A
C2194      O2204   1.265       .  A
C2194      O2195   1.257       .  A
C2194      C2640   1.495       .  S
O2196      C2198   1.259       .  A
Al2197     O2205   1.912       .  S
Al2197     O2207   1.917       .  S
Al2197     O2206   1.777       .  S
C2198      O2211   1.277   1_455  A
O2199      C2209   1.261       .  A
O2199     Al2201   1.902       .  S
O2200      C2213   1.255       .  A
O2200     Al2210   1.875       .  S
Al2201     O2211   1.967   1_455  S
O2202      C2209   1.260       .  A
O2203      C2212   1.258       .  A
O2203     Al2210   1.874       .  S
O2205      C2212   1.268       .  A
O2206     Al2210   1.776       .  S
O2207      C2208   1.267       .  A
C2208      C2261   1.529   1_455  S
C2209      C2649   1.459       .  S
C2212      C2628   1.469       .  S
C2213      O2214   1.265       .  A
C2213      C2661   1.471       .  S
O2215      C2230   1.278   1_655  A
O2215     Al2223   1.975   1_655  S
C2216      O2226   1.265       .  A
C2216      O2217   1.267       .  A
C2216      C2580   1.458       .  S
O2217     Al2219   1.904       .  S
O2218      C2220   1.269       .  A
O2218     Al2219   1.944       .  S
Al2219     O2227   1.928       .  S
Al2219     O2229   1.895       .  S
Al2219     O2228   1.792       .  S
C2220      O2233   1.264       .  A
O2221      C2231   1.269       .  A
O2221     Al2223   1.946       .  S
O2222      C2235   1.260       .  A
O2222     Al2232   1.898       .  S
Al2223     O2236   1.899       .  S
Al2223     O2233   1.946       .  S
Al2223     O2228   1.792       .  S
O2224      C2231   1.255       .  A
O2224     Al2232   1.874       .  S
O2225      C2234   1.257       .  A
O2225     Al2232   1.894       .  S
O2226     Al2232   1.897       .  S
O2227      C2234   1.259       .  A
O2228     Al2232   1.765       .  S
O2229      C2230   1.264       .  A
C2230      C2263   1.507   1_455  S
C2231      C2616   1.488       .  S
C2234      C2589   1.489       .  S
C2235      O2236   1.261       .  A
C2235      C2601   1.465       .  S
C2237      C2238   1.520       .  S
C2237      C2243   1.527       .  S
C2237      C2241   1.581       .  S
C2237      C2613   1.535       .  S
C2238      H2245   1.086       .  S
C2238      C2239   1.354       .  D
C2239      C2240   1.551       .  S
C2239      C2652   1.480       .  S
C2240      C2244   1.554       .  S
C2240      C2242   1.518       .  S
C2240      H2246   1.102       .  S
C2241      H2247   1.084       .  S
C2241      C2242   1.391       .  D
C2242      C2565   1.507       .  S
C2243      H2248   1.090       .  S
C2243      C2244   1.347       .  D
C2244      C2556   1.496       .  S
C2249      C2250   1.573       .  S
C2249      C2255   1.548       .  S
C2249      C2253   1.532       .  S
C2249      C2604   1.543       .  S
C2250      H2257   1.085       .  S
C2250      C2251   1.381       .  D
C2251      C2252   1.520       .  S
C2251      C2529   1.491       .  S
C2252      C2256   1.523       .  S
C2252      C2254   1.535       .  S
C2252      H2258   1.108       .  S
C2253      H2259   1.086       .  S
C2253      C2254   1.361       .  D
C2254      C2664   1.479       .  S
C2255      H2260   1.080       .  S
C2255      C2256   1.353       .  D
C2256      C2544   1.497       .  S
C2261      C2262   1.542   1_655  S
C2261      C2267   1.496       .  S
C2261      C2265   1.559       .  S
C2262      H2269   1.087       .  S
C2263      C2264   1.548       .  S
C2264      C2268   1.580       .  S
C2264      H2270   1.110       .  S
C2265      H2271   1.085       .  S
C2265      C2266   1.391       .  D
C2267      H2272   1.084       .  S
O2273      C2288   1.275       .  A
O2273     Al2281   1.972       .  S
C2274      O2284   1.259       .  A
C2274      O2275   1.261       .  A
C2274      C2532   1.494       .  S
O2275     Al2277   1.910       .  S
O2276      C2278   1.278       .  A
O2276     Al2277   1.957       .  S
Al2277     O2285   1.916       .  S
Al2277     O2287   1.920       .  S
Al2277     O2286   1.772       .  S
C2278      C2428   1.498       .  S
C2278      O2291   1.261       .  A
O2279      C2289   1.268       .  A
O2279     Al2281   1.944       .  S
O2280      C2293   1.262       .  A
O2280     Al2290   1.903       .  S
Al2281     O2294   1.906       .  S
Al2281     O2291   1.926       .  S
Al2281     O2286   1.786       .  S
O2282      C2289   1.260       .  A
O2282     Al2290   1.887       .  S
O2283      C2292   1.260       .  A
O2283     Al2290   1.890       .  S
O2284     Al2290   1.896       .  S
O2285      C2292   1.266       .  A
O2286     Al2290   1.772       .  S
O2287      C2288   1.257       .  A
C2288      C2341   1.546       .  S
C2289      C2520   1.485       .  S
C2292      C2568   1.462       .  S
C2293      O2294   1.264       .  A
C2293      C2508   1.459       .  S
O2295      C2310   1.274       .  A
O2295     Al2303   1.974       .  S
C2296      O2306   1.257       .  A
C2296      O2297   1.257       .  A
C2296      C2541   1.459       .  S
O2298      C2300   1.273       .  A
Al2299     O2307   1.945   1_554  S
Al2299     O2309   1.897   1_554  S
Al2299     O2308   1.782       .  S
C2300      C2423   1.500       .  S
C2300      O2313   1.257       .  A
O2301      C2311   1.270       .  A
O2302      C2315   1.260       .  A
O2302     Al2312   1.900   1_556  S
Al2303     O2316   1.904       .  S
Al2303     O2308   1.789   1_556  S
O2304      C2311   1.256       .  A
O2305      C2314   1.260       .  A
O2305     Al2312   1.884   1_556  S
O2307      C2314   1.270       .  A
O2308     Al2312   1.759       .  S
O2309      C2310   1.259       .  A
C2310      C2343   1.510       .  S
C2311      C2493   1.492       .  S
C2314      C2553   1.467       .  S
C2315      O2316   1.261       .  A
C2315      C2481   1.461       .  S
C2317      C2318   1.561       .  S
C2317      C2323   1.548       .  S
C2317      C2321   1.520       .  S
C2317      C2484   1.537       .  S
C2318      H2325   1.083       .  S
C2319      C2320   1.525       .  S
C2319      C2637   1.495       .  S
C2320      C2322   1.539       .  S
C2320      H2326   1.105       .  S
C2321      H2327   1.086       .  S
C2322      C2505   1.469       .  S
C2323      H2328   1.082       .  S
C2323      C2324   1.367       .  D
C2324      C2577   1.497       .  S
C2329      C2330   1.536       .  S
C2329      C2335   1.548       .  S
C2329      C2333   1.552       .  S
C2329      C2496   1.542       .  S
C2330      H2337   1.080       .  S
C2331      C2332   1.547       .  S
C2331      C2517   1.491       .  S
C2332      C2334   1.535       .  S
C2332      H2338   1.103       .  S
C2333      H2339   1.084       .  S
C2334      C2625   1.499       .  S
C2335      H2340   1.074       .  S
C2335      C2336   1.375       .  D
C2336      C2592   1.530       .  S
C2341      C2342   1.555       .  S
C2341      C2347   1.492       .  S
C2341      C2345   1.555       .  S
C2342      H2349   1.086       .  S
C2342      C2343   1.386       .  D
C2343      C2344   1.545       .  S
C2344      C2348   1.582       .  S
C2344      C2346   1.558       .  S
C2344      H2350   1.110       .  S
C2345      H2351   1.086       .  S
C2345      C2346   1.394       .  D
C2346      C2414   1.523       .  S
C2347      H2352   1.086       .  S
C2347      C2348   1.333       .  D
C2348      C2380   1.494       .  S
C2353      C2354   1.567       .  S
C2353      C2359   1.535       .  S
C2353      C2357   1.514       .  S
C2353      C2457   1.529       .  S
C2354      H2361   1.086       .  S
C2355      C2356   1.531       .  S
C2355      C2700   1.501       .  S
C2356      C2358   1.536       .  S
C2356      H2362   1.108       .  S
C2358      C2472   1.468       .  S
C2359      H2364   1.085       .  S
C2359      C2360   1.364       .  D
C2360      C2676   1.490       .  S
O2365      C2380   1.280       .  A
O2365     Al2373   1.946       .  S
C2366      O2376   1.252       .  A
C2366      O2367   1.266       .  A
C2366      C2781   1.460       .  S
O2367     Al2369   1.898       .  S
O2368      C2370   1.247       .  A
O2368     Al2369   1.924       .  S
Al2369     O2377   1.865       .  S
Al2369     O2379   1.943       .  S
Al2369     O2378   1.764       .  S
C2370      C2421   1.536       .  S
C2370      O2383   1.257       .  A
O2371      C2381   1.285       .  A
O2371     Al2373   1.933       .  S
O2372      C2385   1.251       .  A
O2372     Al2382   1.902       .  S
Al2373     O2386   1.891       .  S
Al2373     O2383   1.932       .  S
Al2373     O2378   1.787       .  S
O2374      C2381   1.278       .  A
O2374     Al2382   1.924       .  S
O2375      C2384   1.263       .  A
O2375     Al2382   1.899       .  S
O2376     Al2382   1.859       .  S
O2377      C2384   1.248       .  A
O2378     Al2382   1.768       .  S
O2379      C2380   1.286       .  A
C2381      C2448   1.481       .  S
C2384      C2724   1.490       .  S
C2385      O2386   1.244       .  A
C2385      C2460   1.479       .  S
C2387      C2388   1.522       .  S
C2387      C2393   1.536       .  S
C2387      C2391   1.559       .  S
C2387      C2445   1.535       .  S
C2389      C2390   1.547       .  S
C2389      C2436   1.481       .  S
C2390      C2392   1.537       .  S
C2390      H2396   1.101       .  S
C2391      H2397   1.086       .  S
C2392      C2712   1.500       .  S
C2393      H2398   1.073       .  S
C2393      C2394   1.371       .  D
C2394      C2685   1.527       .  S
O2399      C2414   1.260       .  A
C2400      O2410   1.264       .  A
C2400      O2401   1.267       .  A
C2400      C2772   1.470       .  S
O2402      C2404   1.259       .  A
Al2403     O2411   1.927   1_554  S
Al2403     O2413   1.977   1_554  S
Al2403     O2412   1.785       .  S
C2404      C2426   1.511       .  S
C2404      O2417   1.269       .  A
O2405      C2415   1.260       .  A
O2405     Al2407   1.915       .  S
O2406      C2419   1.255       .  A
O2406     Al2416   1.875   1_556  S
Al2407     O2417   1.955       .  S
O2408      C2415   1.258       .  A
O2409      C2418   1.253       .  A
O2409     Al2416   1.870   1_556  S
O2411      C2418   1.266       .  A
O2412     Al2416   1.777       .  S
O2413      C2414   1.274       .  A
C2415      C2433   1.471       .  S
C2418      C2736   1.479       .  S
C2419      O2420   1.267       .  A
C2419      C2469   1.459       .  S
C2421      C2422   1.547       .  S
C2421      C2427   1.500       .  S
C2421      C2425   1.553       .  S
C2422      H2429   1.086       .  S
C2422      C2423   1.389       .  D
C2423      C2424   1.548       .  S
C2424      C2428   1.579       .  S
C2424      C2426   1.544       .  S
C2424      H2430   1.110       .  S
C2425      H2431   1.086       .  S
C2425      C2426   1.384       .  D
C2427      H2432   1.085       .  S
C2427      C2428   1.337       .  D
C2433      C2434   1.402       .  A
C2433      C2438   1.412       .  A
C2434      C2435   1.401       .  A
C2434      H2443   1.084       .  S
C2435      C2436   1.411       .  A
C2435      S2439   1.803       .  S
C2436      C2437   1.399       .  A
C2437      C2438   1.400       .  A
C2437      H2444   1.084       .  S
S2439      H2442   1.405       .  S
S2440      H2441   1.406       .  S
C2445      C2446   1.407       .  A
C2445      C2450   1.429       .  A
C2446      C2447   1.386       .  A
C2446      H2455   1.083       .  S
C2447      C2448   1.409       .  A
C2447      S2451   1.797       .  S
C2448      C2449   1.401       .  A
C2449      C2450   1.408       .  A
C2449      H2456   1.083       .  S
C2450      S2452   1.800       .  S
S2451      H2454   1.407       .  S
S2452      H2453   1.407       .  S
C2457      C2458   1.402       .  A
C2457      C2462   1.429       .  A
C2458      C2459   1.399       .  A
C2458      H2467   1.084       .  S
C2459      C2460   1.419       .  A
C2459      S2463   1.800       .  S
C2460      C2461   1.395       .  A
C2461      C2462   1.395       .  A
C2461      H2468   1.084       .  S
C2462      S2464   1.804       .  S
S2463      H2466   1.408       .  S
S2464      H2465   1.403       .  S
C2469      C2470   1.399       .  A
C2469      C2474   1.406       .  A
C2470      C2471   1.393       .  A
C2470      H2479   1.081       .  S
C2471      C2472   1.406       .  A
C2471      S2475   1.808       .  S
C2472      C2473   1.404       .  A
C2473      C2474   1.405       .  A
C2473      H2480   1.082       .  S
C2474      S2476   1.805       .  S
S2475      H2478   1.406   1_556  S
S2476      H2477   1.407       .  S
C2481      C2482   1.400       .  A
C2481      C2486   1.401       .  A
C2482      C2483   1.402       .  A
C2482      H2491   1.082       .  S
C2483      C2484   1.418       .  A
C2483      S2487   1.809       .  S
C2484      C2485   1.417       .  A
C2485      C2486   1.397       .  A
C2485      H2492   1.078       .  S
C2486      S2488   1.805       .  S
S2487      H2490   1.407       .  S
S2488      H2489   1.406       .  S
C2493      C2494   1.403       .  A
C2493      C2498   1.411       .  A
C2494      C2495   1.391       .  A
C2494      H2503   1.083       .  S
C2495      C2496   1.423       .  A
C2495      S2499   1.809       .  S
C2496      C2497   1.417       .  A
C2497      C2498   1.407       .  A
C2497      H2504   1.076       .  S
C2498      S2500   1.800       .  S
S2499      H2502   1.407       .  S
S2500      H2501   1.408       .  S
C2505      C2506   1.402       .  A
C2505      C2510   1.408       .  A
C2506      C2507   1.398       .  A
C2506      H2515   1.084       .  S
C2507      C2508   1.409       .  A
C2507      S2511   1.803       .  S
C2508      C2509   1.403       .  A
C2509      C2510   1.396       .  A
C2509      H2516   1.084       .  S
C2510      S2512   1.803       .  S
S2511      H2514   1.405       .  S
C2517      C2518   1.401       .  A
C2517      C2522   1.413       .  A
C2518      C2519   1.400       .  A
C2518      H2527   1.078       .  S
C2519      C2520   1.412       .  A
C2519      S2523   1.809       .  S
C2520      C2521   1.408       .  A
C2521      C2522   1.405       .  A
C2521      H2528   1.082       .  S
C2522      S2524   1.805       .  S
S2523      H2526   1.407       .  S
S2524      H2525   1.407       .  S
C2529      C2530   1.403       .  A
C2529      C2534   1.410       .  A
C2530      C2531   1.411       .  A
C2530      H2539   1.079       .  S
C2531      C2532   1.421       .  A
C2531      S2535   1.807       .  S
C2532      C2533   1.406       .  A
C2533      C2534   1.395       .  A
C2533      H2540   1.084       .  S
C2534      S2536   1.808       .  S
S2535      H2538   1.406       .  S
S2536      H2537   1.407       .  S
C2541      C2542   1.393       .  A
C2541      C2546   1.408       .  A
C2542      C2543   1.393       .  A
C2542      H2551   1.084       .  S
C2543      C2544   1.431       .  A
C2543      S2547   1.815       .  S
C2544      C2545   1.405       .  A
C2545      C2546   1.401       .  A
C2545      H2552   1.082       .  S
S2547      H2550   1.407       .  S
S2548      H2549   1.407       .  S
C2553      C2554   1.409       .  A
C2553      C2558   1.402       .  A
C2554      C2555   1.401       .  A
C2554      H2563   1.082   1_556  S
C2555      C2556   1.402       .  A
C2555      S2559   1.796       .  S
C2556      C2557   1.417       .  A
C2557      C2558   1.398       .  A
C2557      H2564   1.079       .  S
C2558      S2560   1.804       .  S
S2559      H2562   1.403       .  S
S2560      H2561   1.406       .  S
C2565      C2566   1.404       .  A
C2565      C2570   1.440       .  A
C2566      C2567   1.395       .  A
C2566      H2575   1.082       .  S
C2567      C2568   1.403       .  A
C2567      S2571   1.796       .  S
C2568      C2569   1.387       .  A
C2569      C2570   1.401       .  A
C2569      H2576   1.083       .  S
C2570      S2572   1.809       .  S
S2571      H2574   1.406       .  S
S2572      H2573   1.407       .  S
C2577      C2578   1.412       .  A
C2577      C2582   1.415       .  A
C2578      C2579   1.390       .  A
C2578      H2587   1.081       .  S
C2579      C2580   1.401       .  A
C2579      S2583   1.804       .  S
C2580      C2581   1.404       .  A
C2581      C2582   1.403       .  A
C2581      H2588   1.084       .  S
S2583      H2586   1.408       .  S
S2584      H2585   1.407       .  S
C2589      C2590   1.407       .  A
C2589      C2594   1.411       .  A
C2590      C2591   1.402       .  A
C2590      H2599   1.083       .  S
C2591      C2592   1.418       .  A
C2591      S2595   1.802       .  S
C2592      C2593   1.417       .  A
C2593      C2594   1.404       .  A
S2595      H2598   1.408       .  S
S2596      H2597   1.407       .  S
C2601      C2602   1.406       .  A
C2601      C2606   1.397       .  A
C2602      C2603   1.407       .  A
C2602      H2611   1.082       .  S
C2603      C2604   1.415       .  A
C2603      S2607   1.808       .  S
C2604      C2605   1.420       .  A
C2605      C2606   1.395       .  A
C2605      H2612   1.079       .  S
C2606      S2608   1.803       .  S
S2607      H2610   1.407       .  S
S2608      H2609   1.407       .  S
C2613      C2614   1.403       .  A
C2613      C2618   1.435       .  A
C2614      C2615   1.397       .  A
C2614      H2623   1.078       .  S
C2615      C2616   1.421       .  A
C2615      S2619   1.806       .  S
C2616      C2617   1.394       .  A
C2617      C2618   1.407       .  A
C2617      H2624   1.082       .  S
C2618      S2620   1.811       .  S
S2619      H2622   1.407       .  S
S2620      H2621   1.406   1_455  S
C2625      C2626   1.405       .  A
C2625      C2630   1.424   1_565  A
C2626      C2627   1.389       .  A
C2626      H2635   1.076       .  S
C2627      C2628   1.409       .  A
C2627      S2631   1.807       .  S
C2628      C2629   1.399       .  A
C2629      C2630   1.404   1_565  A
C2629      H2636   1.082   1_565  S
S2631      H2634   1.408       .  S
S2632      H2633   1.407       .  S
C2637      C2638   1.410       .  A
C2637      C2642   1.414       .  A
C2638      C2639   1.403       .  A
C2638      H2647   1.084       .  S
C2639      C2640   1.414       .  A
C2639      S2643   1.801       .  S
C2640      C2641   1.413       .  A
C2641      C2642   1.398       .  A
C2641      H2648   1.081   1_565  S
S2643      H2646   1.408       .  S
S2644      H2645   1.406       .  S
C2649      C2650   1.393       .  A
C2649      C2654   1.413       .  A
C2650      C2651   1.393       .  A
C2650      H2659   1.085       .  S
C2651      C2652   1.417       .  A
C2651      S2655   1.792       .  S
C2652      C2653   1.399       .  A
C2653      C2654   1.399       .  A
C2653      H2660   1.084       .  S
C2654      S2656   1.800   1_455  S
S2655      H2658   1.403       .  S
S2656      H2657   1.406       .  S
C2661      C2662   1.402       .  A
C2661      C2666   1.411       .  A
C2662      C2663   1.388       .  A
C2662      H2671   1.084       .  S
C2663      C2664   1.407       .  A
C2663      S2667   1.802       .  S
C2664      C2665   1.409       .  A
C2665      C2666   1.410       .  A
C2665      H2672   1.084       .  S
C2666      S2668   1.804       .  S
S2667      H2670   1.406       .  S
S2668      H2669   1.405       .  S
C2673      C2674   1.404       .  A
C2673      C2678   1.404       .  A
C2674      C2675   1.402       .  A
C2674      H2683   1.084       .  S
C2675      C2676   1.413       .  A
C2676      C2677   1.410       .  A
C2677      C2678   1.385       .  A
C2677      H2684   1.082       .  S
C2678      S2680   1.808       .  S
S2679      H2682   1.404       .  S
S2680      H2681   1.408       .  S
C2685      C2686   1.413       .  A
C2685      C2690   1.420       .  A
C2686      C2687   1.402       .  A
C2687      C2688   1.416       .  A
C2687      S2691   1.805       .  S
C2688      C2689   1.405       .  A
C2689      C2690   1.402       .  A
C2689      H2696   1.083       .  S
C2690      S2692   1.807       .  S
S2692      H2693   1.407       .  S
C2697      C2698   1.409       .  A
C2697      C2702   1.424   1_565  A
C2698      C2699   1.401       .  A
C2698      H2707   1.083       .  S
C2699      C2700   1.412       .  A
C2699      S2703   1.803       .  S
C2700      C2701   1.404   1_565  A
C2701      C2702   1.409       .  A
S2703      H2706   1.407       .  S
C2709      C2710   1.405       .  A
C2709      C2714   1.407   1_565  A
C2710      C2711   1.396       .  A
C2710      H2719   1.083       .  S
C2711      C2712   1.416       .  A
C2711      S2715   1.805       .  S
C2712      C2713   1.415   1_565  A
C2713      C2714   1.402       .  A
C2713      H2720   1.083       .  S
C2714      S2716   1.799       .  S
S2715      H2718   1.406       .  S
S2716      H2717   1.408       .  S
C2721      C2722   1.399       .  A
C2721      C2726   1.433       .  A
C2722      C2723   1.402       .  A
C2722      H2731   1.082       .  S
C2723      C2724   1.425       .  A
C2723      S2727   1.811       .  S
C2724      C2725   1.395       .  A
C2725      C2726   1.400       .  A
C2725      H2732   1.082       .  S
C2726      S2728   1.807       .  S
S2727      H2730   1.407       .  S
S2728      H2729   1.406       .  S
C2733      C2734   1.406       .  A
C2733      C2738   1.412       .  A
C2734      C2735   1.400       .  A
C2734      H2743   1.081       .  S
C2735      C2736   1.413       .  A
C2735      S2739   1.799       .  S
C2736      C2737   1.408       .  A
C2737      C2738   1.399       .  A
C2737      H2744   1.084       .  S
C2738      S2740   1.806       .  S
S2739      H2742   1.407       .  S
S2740      H2741   1.407       .  S
C2745      C2746   1.411       .  A
C2745      C2750   1.403       .  A
C2746      C2747   1.412       .  A
C2746      H2755   1.084       .  S
C2747      C2748   1.412       .  A
C2747      S2751   1.802       .  S
C2748      C2749   1.408       .  A
C2749      C2750   1.389       .  A
C2749      H2756   1.083       .  S
C2750      S2752   1.805       .  S
S2751      H2754   1.405       .  S
S2752      H2753   1.407       .  S
C2757      C2758   1.405       .  A
C2757      C2762   1.430       .  A
C2758      C2759   1.384       .  A
C2758      H2767   1.073       .  S
C2759      C2760   1.414       .  A
C2759      S2763   1.801       .  S
C2760      C2761   1.401       .  A
C2761      C2762   1.413       .  A
C2761      H2768   1.083       .  S
C2762      S2764   1.806       .  S
S2763      H2766   1.407       .  S
S2764      H2765   1.407       .  S
C2769      C2770   1.416       .  A
C2769      C2774   1.408       .  A
C2770      C2771   1.398       .  A
C2770      H2779   1.078       .  S
C2771      C2772   1.401       .  A
C2771      S2775   1.806       .  S
C2772      C2773   1.409       .  A
C2773      C2774   1.403       .  A
C2773      H2780   1.082       .  S
C2774      S2776   1.803       .  S
S2775      H2778   1.405       .  S
S2776      H2777   1.402       .  S
C2781      C2782   1.384       .  A
C2781      C2786   1.414       .  A
C2782      C2783   1.389       .  A
C2782      H2791   1.083       .  S
C2783      C2784   1.432       .  A
C2783      S2787   1.805       .  S
C2784      C2785   1.397       .  A
C2785      C2786   1.396       .  A
C2785      H2792   1.084       .  S
C2786      S2788   1.796       .  S
S2787      H2790   1.406       .  S
S2788      H2789   1.406       .  S
C2793      C2794   1.411       .  A
C2793      C2798   1.410       .  A
C2794      C2795   1.403       .  A
C2794      H2803   1.083       .  S
C2795      C2796   1.412       .  A
C2795      S2799   1.804       .  S
C2796      C2797   1.406       .  A
C2797      C2798   1.391       .  A
C2797      H2804   1.078       .  S
C2798      S2800   1.806       .  S
S2799      H2802   1.405       .  S
S2800      H2801   1.408       .  S
C2805      C2806   1.406       .  A
C2805      C2810   1.429       .  A
C2806      C2807   1.382       .  A
C2806      H2815   1.075       .  S
C2807      C2808   1.406       .  A
C2807      S2811   1.814       .  S
C2808      C2809   1.410       .  A
C2809      C2810   1.427       .  A
C2809      H2816   1.082       .  S
C2810      S2812   1.801       .  S
S2811      H2814   1.408       .  S
S2812      H2813   1.407       .  S
