geometry optimzed in LAMMPS
_audit_creation_date              2020-11-30 
_audit_creation_method            'lammps2cif' 
_symmetry_space_group_name_H-M    'P1' 
_symmetry_Int_Tables_number       1 
_symmetry_cell_setting            triclinic 
loop_ 
_symmetry_equiv_pos_as_xyz 
  x,y,z 
_cell_length_a                    49.66170444 
_cell_length_b                    49.82171204012237 
_cell_length_c                    49.79763391819738 
_cell_angle_alpha                 89.93305534468605 
_cell_angle_beta                  89.93423110829617 
_cell_angle_gamma                 89.42768482790362 
loop_ 
_atom_site_label 
_atom_site_type_symbol 
_atom_site_fract_x 
_atom_site_fract_y 
_atom_site_fract_z 
_atom_site_charge 
C1          C  0.59058748  0.08155814  0.75621278    -0.02800
C2          C  0.58674618  0.92190923  0.75101470    -0.02800
C3          C  0.42642840  0.07804889  0.74300463    -0.02800
C4          C  0.42088058  0.91907496  0.74930417    -0.02800
C5          C  0.75210532  0.58048440  0.92554952    -0.02800
C6          C  0.73853101  0.42677766  0.07948373    -0.02800
C7          C  0.74127608  0.59149433  0.08918498    -0.02800
C8          C  0.75198393  0.41773676  0.91538349    -0.02800
C9          C  0.09317825  0.75117268  0.58976292    -0.02800
C10         C  0.08583051  0.75294997  0.42414596    -0.02800
C11         C  0.93427073  0.75924872  0.58274605    -0.02800
C12         C  0.92226972  0.75377348  0.41805897    -0.02800
In13       In  0.56340381  0.17950118  0.07383715     1.36900
C14         C  0.57795384  0.16728101  0.02304303     0.77300
O15         O  0.52400778  0.15852112  0.08310073    -0.61100
O16         O  0.52365337  0.19378143  0.05919752    -0.52000
C17         C  0.58406849  0.15579348  0.11852164     0.70000
O18         O  0.57680316  0.14262812  0.09821135    -0.46900
C19         C  0.56690198  0.23249383  0.07949854     0.74700
O20         O  0.55913347  0.15586565  0.03533428    -0.58800
O21         O  0.54930045  0.21889598  0.09159072    -0.48900
O22         O  0.59254158  0.18148626  0.03802335    -0.55200
C23         C  0.51034115  0.17521690  0.06965561     0.84900
O24         O  0.58307050  0.18073222  0.11493006    -0.57100
O25         O  0.58359698  0.21883524  0.06586627    -0.60400
In26       In  0.56158941  0.31516641  0.07372143     1.36900
C27         C  0.51030885  0.32746825  0.08636016     0.77300
O28         O  0.56964307  0.33878726  0.03554310    -0.61100
O29         O  0.54905186  0.30175472  0.03315065    -0.52000
C30         C  0.60773171  0.33715613  0.09249373     0.70000
O31         O  0.58502299  0.34815880  0.09656264    -0.46900
C32         C  0.56656636  0.26200050  0.07918353     0.74700
O33         O  0.52350061  0.33991426  0.06874845    -0.58800
O34         O  0.57659287  0.27493327  0.05995257    -0.48900
O35         O  0.52451516  0.31196866  0.10075227    -0.55200
C36         C  0.55902929  0.32128494  0.02078469     0.84900
O37         O  0.60606348  0.31478877  0.08115173    -0.57100
O38         O  0.55495768  0.27634959  0.09675624    -0.60400
In39       In  0.42809154  0.17747970  0.06243857     1.36900
C40         C  0.41756447  0.16425706  0.01073116     0.77300
O41         O  0.40897698  0.21796178  0.05418334    -0.61100
O42         O  0.44173103  0.21568987  0.08157839    -0.52000
C43         C  0.40643313  0.15341546  0.10575253     0.70000
O44         O  0.40255221  0.17789596  0.10071202    -0.46900
C45         C  0.48124261  0.17426779  0.06641112     0.74700
O46         O  0.43694300  0.15472093  0.02401323    -0.58800
O47         O  0.46912644  0.19128326  0.05205747    -0.48900
O48         O  0.40096747  0.17743780  0.02486339    -0.55200
C49         C  0.42519845  0.23038894  0.06913993     0.84900
O50         O  0.41748765  0.14075657  0.08673329    -0.57100
O51         O  0.46627304  0.15762516  0.07808659    -0.60400
In52       In  0.43038584  0.31277611  0.07125990     1.36900
C53         C  0.48043925  0.32694370  0.08590418     0.77300
O54         O  0.44083843  0.27186990  0.08749894    -0.61100
O55         O  0.41297640  0.27467504  0.05508320    -0.52000
C56         C  0.38424213  0.33030152  0.09483097     0.70000
O57         O  0.40236922  0.34635202  0.08750966    -0.46900
C58         C  0.43226790  0.31871523  0.01820375     0.74700
O59         O  0.46715077  0.33908918  0.06805776    -0.58800
O60         O  0.44551614  0.30126385  0.03088012    -0.48900
O61         O  0.46662760  0.31077562  0.09961212    -0.55200
C62         C  0.42603947  0.25969694  0.07091120     0.84900
O63         O  0.39117525  0.30612616  0.09284334    -0.57100
O64         O  0.41815064  0.33418613  0.03266863    -0.60400
In65       In  0.56819507  0.18193839  0.94165625     1.36900
C66         C  0.57883926  0.16804586  0.99321464     0.77300
O67         O  0.58597912  0.22220037  0.95097089    -0.61100
O68         O  0.55548755  0.22061262  0.92118080    -0.52000
C69         C  0.59216662  0.15666213  0.89980498     0.70000
O70         O  0.59664327  0.18079881  0.90563199    -0.46900
C71         C  0.51492357  0.17875629  0.93801070     0.74700
O72         O  0.56091300  0.15721216  0.97921372    -0.58800
O73         O  0.52655775  0.19426925  0.95408709    -0.48900
O74         O  0.59423367  0.18299570  0.97985833    -0.55200
C75         C  0.57081978  0.23503503  0.93505894     0.84900
O76         O  0.57857587  0.14464257  0.91739338    -0.57100
O77         O  0.53044592  0.16432465  0.92404823    -0.60400
In78       In  0.43092692  0.31485925  0.93573766     1.36900
C79         C  0.48206867  0.32864354  0.92285988     0.77300
O80         O  0.41999608  0.33607284  0.97471355    -0.61100
O81         O  0.44483983  0.30121453  0.97589585    -0.52000
C82         C  0.38234969  0.33379765  0.91849518     0.70000
O83         O  0.40333258  0.34801284  0.91719939    -0.46900
C84         C  0.42750065  0.26214447  0.92925201     0.74700
O85         O  0.46777443  0.34155108  0.93943184    -0.58800
O86         O  0.41941647  0.27416010  0.95003937    -0.48900
O87         O  0.46887672  0.31186397  0.90933693    -0.55200
C88         C  0.43257181  0.31915200  0.98890140     0.84900
O89         O  0.38722559  0.31009146  0.92546581    -0.57100
O90         O  0.43691237  0.27717460  0.91105382    -0.60400
In91       In  0.56339763  0.31751465  0.93841794     1.36900
C92         C  0.51213712  0.32928111  0.92355880     0.77300
O93         O  0.55822849  0.27811480  0.91625763    -0.61100
O94         O  0.57847913  0.27808000  0.95391223    -0.52000
C95         C  0.61110680  0.33797991  0.92055613     0.70000
O96         O  0.58949761  0.35165869  0.91978937    -0.46900
C97         C  0.55936100  0.32193749  0.99149462     0.74700
O98         O  0.52470364  0.34227053  0.94118319    -0.58800
O99         O  0.54925394  0.30319439  0.97818824    -0.48900
O100        O  0.52707495  0.31354598  0.91016932    -0.55200
C101        C  0.56955533  0.26449001  0.93462605     0.84900
O102        O  0.60734407  0.31423931  0.92784077    -0.57100
O103        O  0.57080873  0.33971047  0.97762794    -0.60400
In104      In  0.43224502  0.17982713  0.93097275     1.36900
C105        C  0.41795899  0.16435051  0.98084134     0.77300
O106        O  0.47328990  0.16307383  0.91970983    -0.61100
O107        O  0.47089967  0.19415658  0.94860296    -0.52000
C108        C  0.41366028  0.15729557  0.88472394     0.70000
O109        O  0.41092991  0.18180415  0.89025406    -0.46900
C110        C  0.42734645  0.23280354  0.92764834     0.74700
O111        O  0.43714932  0.15382622  0.96795906    -0.58800
O112        O  0.44393966  0.21972462  0.91347726    -0.48900
O113        O  0.40266627  0.17886933  0.96652978    -0.55200
C114        C  0.48568314  0.17841496  0.93542429     0.84900
O115        O  0.42282925  0.14372907  0.90415422    -0.57100
O116        O  0.41197089  0.21868072  0.94200285    -0.60400
In117      In  0.56712208  0.67975987  0.93333330     1.36900
C118        C  0.51609214  0.66652164  0.92176190     0.77300
O119        O  0.57357954  0.65799027  0.97306324    -0.61100
O120        O  0.55292889  0.69552840  0.97244613    -0.52000
C121        C  0.61167346  0.65536711  0.91304363     0.70000
O122        O  0.58817086  0.64776774  0.90730145    -0.46900
C123        C  0.57249108  0.73243687  0.92608198     0.74700
O124        O  0.52959675  0.65518775  0.94004782    -0.58800
O125        O  0.58454057  0.71962892  0.94431396    -0.48900
O126        O  0.52985931  0.68146450  0.90658657    -0.55200
C127        C  0.56165722  0.67621920  0.98625345     0.84900
O128        O  0.61201095  0.67554109  0.92805433    -0.57100
O129        O  0.55925917  0.71805466  0.91002166    -0.60400
In130      In  0.41969261  0.68746694  0.06633422     1.36900
C131        C  0.47008557  0.67220072  0.07887407     0.77300
O132        O  0.41052359  0.66583431  0.02730647    -0.61100
O133        O  0.43585619  0.69983621  0.02657552    -0.52000
C134        C  0.37489529  0.66544261  0.08796852     0.70000
O135        O  0.39783758  0.65451950  0.09042422    -0.46900
C136        C  0.41507837  0.74057819  0.07137205     0.74700
O137        O  0.45622267  0.66080093  0.06112972    -0.58800
O138        O  0.40173958  0.72748561  0.05445445    -0.48900
O139        O  0.45683644  0.68847134  0.09340851    -0.55200
C140        C  0.42493010  0.68137125  0.01351785     0.84900
O141        O  0.37560494  0.68772981  0.07628471    -0.57100
O142        O  0.42952362  0.72641784  0.08687173    -0.60400
In143      In  0.55241237  0.67968588  0.06842176     1.36900
C144        C  0.49993786  0.67037107  0.07869975     0.77300
O145        O  0.54142373  0.72007580  0.08544381    -0.61100
O146        O  0.57533627  0.71747254  0.05944965    -0.52000
C147        C  0.59250658  0.65226719  0.09316976     0.70000
O148        O  0.57199041  0.64106269  0.08356946    -0.46900
C149        C  0.55798149  0.67602258  0.01533216     0.74700
O150        O  0.51252264  0.66025455  0.05914378    -0.58800
O151        O  0.54542800  0.69470699  0.02689645    -0.48900
O152        O  0.51490661  0.68214790  0.09533445    -0.55200
C153        C  0.55963316  0.73233581  0.07283356     0.84900
O154        O  0.59080328  0.67746861  0.09318469    -0.57100
O155        O  0.56720073  0.65815960  0.03078952    -0.60400
In156      In  0.43404961  0.67921197  0.93148115     1.36900
C157        C  0.48617672  0.66629642  0.92167077     0.77300
O158        O  0.44187898  0.71848649  0.91025162    -0.61100
O159        O  0.41412644  0.71800267  0.94279341    -0.52000
C160        C  0.39127807  0.65511055  0.90935325     0.70000
O161        O  0.41025337  0.64189111  0.92007117    -0.46900
C162        C  0.42888051  0.67898935  0.98457716     0.74700
O163        O  0.47288983  0.65663775  0.94086920    -0.58800
O164        O  0.44410079  0.69474680  0.97211219    -0.48900
O165        O  0.47193818  0.67928021  0.90508794    -0.55200
C166        C  0.42648501  0.73175423  0.92564552     0.84900
O167        O  0.39639426  0.67956117  0.90632552    -0.57100
O168        O  0.41706500  0.66207651  0.97006535    -0.60400
In169      In  0.42354387  0.82236127  0.06435097     1.36900
C170        C  0.41259807  0.83161517  0.01192370     0.77300
O171        O  0.46312145  0.84428441  0.07124141    -0.61100
O172        O  0.46349931  0.80516039  0.05442236    -0.52000
C173        C  0.40392778  0.84684702  0.10943625     0.70000
O174        O  0.39968640  0.85622430  0.08614886    -0.46900
C175        C  0.41604327  0.76999041  0.07108043     0.74700
O176        O  0.42993925  0.84464404  0.02488491    -0.58800
O177        O  0.43612713  0.78221497  0.08008914    -0.48900
O178        O  0.39779021  0.81726268  0.02660426    -0.55200
C179        C  0.47696150  0.82454409  0.06296654     0.84900
O180        O  0.41656717  0.82496255  0.10907135    -0.57100
O181        O  0.39844969  0.78483354  0.05998593    -0.60400
In182      In  0.56328853  0.81415417  0.93404657     1.36900
C183        C  0.57431667  0.82536167  0.98564944     0.77300
O184        O  0.52375269  0.82693210  0.91539379    -0.61100
O185        O  0.52286917  0.80352110  0.95091056    -0.52000
C186        C  0.58260903  0.84664482  0.89546281     0.70000
O187        O  0.58525465  0.82150099  0.89447488    -0.46900
C188        C  0.57141242  0.76187560  0.92592491     0.74700
O189        O  0.55680002  0.83777500  0.97209233    -0.58800
O190        O  0.55220127  0.77470164  0.91532030    -0.48900
O191        O  0.58906505  0.80978342  0.97194196    -0.55200
C192        C  0.50965430  0.81560642  0.93299527     0.84900
O193        O  0.57374343  0.85502526  0.91765624    -0.57100
O194        O  0.58787436  0.77613080  0.93877935    -0.60400
In195      In  0.55939150  0.81461668  0.06635064     1.36900
C196        C  0.57364922  0.82556299  0.01535690     0.77300
O197        O  0.57965612  0.77434924  0.06041720    -0.61100
O198        O  0.54234577  0.77621242  0.08165654    -0.52000
C199        C  0.58138497  0.83596941  0.11123977     0.70000
O200        O  0.57648441  0.84956306  0.09039680    -0.46900
C201        C  0.50631212  0.82259114  0.06393221     0.74700
O202        O  0.55576738  0.83838607  0.02793296    -0.58800
O203        O  0.51821836  0.80207987  0.05507703    -0.48900
O204        O  0.58742059  0.80993348  0.02995168    -0.55200
C205        C  0.56096898  0.76170229  0.07206851     0.84900
O206        O  0.57714729  0.81138865  0.10828736    -0.57100
O207        O  0.52153945  0.83983474  0.07429902    -0.60400
In208      In  0.42671286  0.81386150  0.93168232     1.36900
C209        C  0.41330985  0.82943613  0.98208229     0.77300
O210        O  0.40816303  0.77387147  0.94013884    -0.61100
O211        O  0.44093965  0.77538147  0.91262173    -0.52000
C212        C  0.40435982  0.83830461  0.88852138     0.70000
O213        O  0.41573488  0.85072518  0.90734296    -0.46900
C214        C  0.48026312  0.81581684  0.93259366     0.74700
O215        O  0.43095017  0.84094406  0.96814296    -0.58800
O216        O  0.46672160  0.80276639  0.94937104    -0.48900
O217        O  0.39959252  0.81273681  0.96898049    -0.55200
C218        C  0.42467627  0.76106145  0.92554650     0.84900
O219        O  0.40119251  0.81376343  0.89341262    -0.57100
O220        O  0.46650325  0.82842836  0.91537830    -0.60400
C221        C  0.58839178  0.07568286  0.25969852    -0.02800
C222        C  0.42292932  0.91543000  0.25153254    -0.02800
C223        C  0.58865032  0.92219411  0.24769417    -0.02800
C224        C  0.42452150  0.07945231  0.24978058    -0.02800
In225      In  0.93826512  0.57355720  0.68288521     1.36900
C226        C  0.92490782  0.52255553  0.66930718     0.77300
O227        O  0.97859643  0.58390691  0.66380453    -0.61100
O228        O  0.97794239  0.56183291  0.70019683    -0.52000
C229        C  0.91922229  0.61990291  0.66029467     0.70000
O230        O  0.92553647  0.59960933  0.64635473    -0.46900
C231        C  0.93101829  0.57629849  0.73569192     0.74700
O232        O  0.94536506  0.53439421  0.66040981    -0.58800
O233        O  0.94987498  0.58823520  0.72383828    -0.48900
O234        O  0.90898011  0.53791513  0.68191342    -0.55200
C235        C  0.99192685  0.57279931  0.68235149     0.84900
O236        O  0.92000805  0.61527680  0.68507043    -0.57100
O237        O  0.91453047  0.56466129  0.72038417    -0.60400
In238      In  0.93048363  0.43971000  0.68047445     1.36900
C239        C  0.92277807  0.49268986  0.66877768     0.77300
O240        O  0.91240657  0.44707139  0.72132686    -0.61100
O241        O  0.94048616  0.41486044  0.71745539    -0.52000
C242        C  0.90662070  0.39891782  0.65309407     0.70000
O243        O  0.92452389  0.41372984  0.64333019    -0.46900
C244        C  0.98407337  0.43846627  0.67901044     0.74700
O245        O  0.94073149  0.47822816  0.65829627    -0.58800
O246        O  0.97077830  0.44793007  0.69837110    -0.48900
O247        O  0.90577443  0.47938035  0.68197783    -0.55200
C248        C  0.92587779  0.42881269  0.73294417     0.84900
O249        O  0.89839993  0.40693364  0.67565019    -0.57100
O250        O  0.97006271  0.42857051  0.66046596    -0.60400
In251      In  0.06709201  0.43952023  0.68095833     1.36900
C252        C  0.08067242  0.49105747  0.67241948     0.77300
O253        O  0.02781179  0.42951428  0.66008547    -0.61100
O254        O  0.02645632  0.44987208  0.69740163    -0.52000
C255        C  0.08771327  0.39835131  0.65217379     0.70000
O256        O  0.08389381  0.42142030  0.64230505    -0.46900
C257        C  0.07415065  0.43007925  0.73294847     0.74700
O258        O  0.06045225  0.48024869  0.66183182    -0.58800
O259        O  0.05664667  0.41836681  0.71908424    -0.48900
O260        O  0.09607271  0.47474158  0.68447013    -0.55200
C261        C  0.01347737  0.43926915  0.67862563     0.84900
O262        O  0.08371939  0.39731490  0.67704017    -0.57100
O263        O  0.08943292  0.44550286  0.71992036    -0.60400
In264      In  0.07440348  0.57143652  0.69042322     1.36900
C265        C  0.08295620  0.52063423  0.67444948     0.77300
O266        O  0.09501789  0.55926530  0.72931837    -0.61100
O267        O  0.06172477  0.58645145  0.73070538    -0.52000
C268        C  0.09762824  0.61688609  0.67202569     0.70000
O269        O  0.09871682  0.59532209  0.65868354    -0.46900
C270        C  0.02126572  0.57264503  0.68416805     0.74700
O271        O  0.06590372  0.53606632  0.66365015    -0.58800
O272        O  0.03298646  0.56157669  0.70364895    -0.48900
O273        O  0.09887340  0.53229383  0.69035674    -0.55200
C274        C  0.07883187  0.57288422  0.74365196     0.84900
O275        O  0.08700058  0.61406451  0.69464973    -0.57100
O276        O  0.03672026  0.58340433  0.66723940    -0.60400
In277      In  0.06797512  0.42843497  0.81507010     1.36900
C278        C  0.01670598  0.41542567  0.82600032     0.77300
O279        O  0.05140871  0.46933684  0.80633501    -0.61100
O280        O  0.08316693  0.46638887  0.83461489    -0.52000
C281        C  0.10976041  0.40551587  0.84130243     0.70000
O282        O  0.08866597  0.41387214  0.85278855    -0.46900
C283        C  0.07465586  0.42767229  0.76223697     0.74700
O284        O  0.03102019  0.40186348  0.80992954    -0.58800
O285        O  0.06136242  0.41005980  0.77460899    -0.48900
O286        O  0.02974662  0.43227323  0.83941249    -0.55200
C287        C  0.06688407  0.48135360  0.82211872     0.84900
O288        O  0.10808530  0.40538161  0.81609705    -0.57100
O289        O  0.08637179  0.44443289  0.77702097    -0.60400
In290      In  0.93376185  0.56457357  0.81744176     1.36900
C291        C  0.98454952  0.57632654  0.83203104     0.77300
O292        O  0.92362616  0.52521831  0.83812802    -0.61100
O293        O  0.94685871  0.52440169  0.80239925    -0.52000
C294        C  0.88764577  0.58451579  0.83872076     0.70000
O295        O  0.90966332  0.58517413  0.85141945    -0.46900
C296        C  0.93017698  0.57381261  0.76499249     0.74700
O297        O  0.97075277  0.55854072  0.84345635    -0.58800
O298        O  0.91860488  0.55448993  0.77636992    -0.48900
O299        O  0.97116068  0.59098373  0.81609433    -0.55200
C300        C  0.93566476  0.51118790  0.82072256     0.84900
O301        O  0.89009390  0.57589428  0.81522507    -0.57100
O302        O  0.94272316  0.58930559  0.78058989    -0.60400
In303      In  0.06680634  0.56384823  0.82476380     1.36900
C304        C  0.01444012  0.57631419  0.83352593     0.77300
O305        O  0.06544032  0.58872730  0.78712338    -0.61100
O306        O  0.08631902  0.55123684  0.78585290    -0.52000
C307        C  0.10657224  0.58367688  0.85601609     0.70000
O308        O  0.08398436  0.57677690  0.86523002    -0.46900
C309        C  0.06634610  0.51050225  0.82453528     0.74700
O310        O  0.02736126  0.55940702  0.84740120    -0.58800
O311        O  0.08179455  0.52344921  0.83968737    -0.48900
O312        O  0.02911029  0.58987236  0.81798809    -0.55200
C313        C  0.07766600  0.57134642  0.77303867     0.84900
O314        O  0.10768341  0.58302125  0.83080921    -0.57100
O315        O  0.05081275  0.52471779  0.81046489    -0.60400
In316      In  0.93507428  0.42850634  0.81537793     1.36900
C317        C  0.98685606  0.41566915  0.82572570     0.77300
O318        O  0.93939921  0.40788430  0.77480244    -0.61100
O319        O  0.91660319  0.44410504  0.77735216    -0.52000
C320        C  0.89387146  0.40575972  0.84318422     0.70000
O321        O  0.91738568  0.40769063  0.85250012    -0.46900
C322        C  0.93615589  0.48183015  0.82055583     0.74700
O323        O  0.97344839  0.43240295  0.83932813    -0.58800
O324        O  0.94925533  0.46906267  0.80310037    -0.48900
O325        O  0.97292414  0.40260931  0.80912869    -0.55200
C326        C  0.92671361  0.42627918  0.76242824     0.84900
O327        O  0.89220835  0.41306954  0.81907239    -0.57100
O328        O  0.92295855  0.46734423  0.83652506    -0.60400
C329        C  0.24788931  0.56949417  0.09098607    -0.02800
C330        C  0.24310729  0.41574514  0.93441948    -0.02800
C331        C  0.25080625  0.57973842  0.92802078    -0.02800
C332        C  0.24360904  0.40431036  0.09570289    -0.02800
In333      In  0.06225001  0.57195928  0.31528771     1.36900
C334        C  0.07526527  0.52119110  0.33005927     0.77300
O335        O  0.02289255  0.58517895  0.33459626    -0.61100
O336        O  0.02197140  0.55661626  0.30313847    -0.52000
C337        C  0.08424781  0.61725861  0.33647076     0.70000
O338        O  0.08042437  0.61343917  0.31185872    -0.46900
C339        C  0.06528979  0.57558196  0.26210585     0.74700
O340        O  0.05743415  0.53509913  0.34168745    -0.58800
O341        O  0.04809497  0.58845639  0.27569871    -0.48900
O342        O  0.08961613  0.53453614  0.31397693    -0.55200
C343        C  0.00881088  0.57040982  0.31975557     0.84900
O344        O  0.07955384  0.59667309  0.35050267    -0.57100
O345        O  0.08212483  0.56212067  0.27577442    -0.60400
In346      In  0.05728048  0.56744920  0.18029780     1.36900
C347        C  0.00563695  0.58011820  0.16949822     0.77300
O348        O  0.06572611  0.52802733  0.15840789    -0.61100
O349        O  0.04591363  0.52769369  0.19616463    -0.52000
C350        C  0.10163552  0.58701653  0.15602891     0.70000
O351        O  0.07878745  0.58777434  0.14486925    -0.46900
C352        C  0.06414492  0.57444048  0.23272210     0.74700
O353        O  0.01832463  0.56155936  0.15767045    -0.58800
O354        O  0.05040504  0.59069065  0.21863941    -0.48900
O355        O  0.02034498  0.59498927  0.18371208    -0.55200
C356        C  0.05545798  0.51427267  0.17699983     0.84900
O357        O  0.10092270  0.57864923  0.17973945    -0.57100
O358        O  0.07531584  0.55569610  0.21978108    -0.60400
In359      In  0.05604903  0.43216476  0.18537312     1.36900
C360        C  0.00473037  0.41927649  0.17341102     0.77300
O361        O  0.07251727  0.44879433  0.22341331    -0.61100
O362        O  0.04671569  0.41491214  0.22609776    -0.52000
C363        C  0.10305616  0.40863705  0.16927157     0.70000
O364        O  0.08284380  0.40973666  0.15382092    -0.46900
C365        C  0.05505769  0.48500153  0.17788769     0.74700
O366        O  0.01879055  0.40553458  0.18962156    -0.58800
O367        O  0.04419942  0.47329927  0.19733810    -0.48900
O368        O  0.01815553  0.43615235  0.16026363    -0.55200
C369        C  0.06062069  0.43224630  0.23828036     0.84900
O370        O  0.09796163  0.41705329  0.19239381    -0.57100
O371        O  0.06603224  0.46960208  0.16086506    -0.60400
In372      In  0.06189780  0.44006778  0.32020809     1.36900
C373        C  0.07532370  0.49128841  0.33126687     0.77300
O374        O  0.04541564  0.42242630  0.28245017    -0.61100
O375        O  0.07921282  0.44833506  0.27946660    -0.52000
C376        C  0.08562675  0.39406070  0.33768215     0.70000
O377        O  0.08179339  0.41370627  0.35338528    -0.46900
C378        C  0.00887343  0.44053620  0.32643238     0.74700
O379        O  0.05792836  0.47854113  0.34445773    -0.58800
O380        O  0.02096238  0.45329651  0.30842321    -0.48900
O381        O  0.08923720  0.47660366  0.31580520    -0.55200
C382        C  0.06204533  0.43409594  0.26745711     0.84900
O383        O  0.08012746  0.39940257  0.31374378    -0.57100
O384        O  0.02395508  0.42815011  0.34277331    -0.60400
In385      In  0.92494983  0.56866954  0.18440706     1.36900
C386        C  0.97578721  0.58070546  0.17054356     0.77300
O387        O  0.93366656  0.59012374  0.22294672    -0.61100
O388        O  0.90976880  0.55473024  0.22412942    -0.52000
C389        C  0.87891450  0.59200933  0.16656447     0.70000
O390        O  0.89938117  0.58950168  0.15161960    -0.46900
C391        C  0.92617356  0.51553205  0.18012427     0.74700
O392        O  0.96179171  0.56396574  0.15793462    -0.58800
O393        O  0.93717280  0.52834005  0.19873148    -0.48900
O394        O  0.96255964  0.59451003  0.18731799    -0.55200
C395        C  0.92099849  0.57325325  0.23705215     0.84900
O396        O  0.88295011  0.58433520  0.19014899    -0.57100
O397        O  0.91474557  0.52988547  0.16250574    -0.60400
In398      In  0.92642058  0.43690295  0.32231056     1.36900
C399        C  0.91346649  0.48846407  0.33329411     0.77300
O400        O  0.96591683  0.42547526  0.34244938    -0.61100
O401        O  0.96609937  0.45209132  0.30917507    -0.52000
C402        C  0.90775508  0.39427223  0.35013848     0.70000
O403        O  0.90910400  0.41748095  0.36016293    -0.46900
C404        C  0.92086037  0.42885975  0.26957640     0.74700
O405        O  0.93143980  0.47541648  0.34559142    -0.58800
O406        O  0.90292159  0.44040458  0.28361331    -0.48900
O407        O  0.89899884  0.47413107  0.31826570    -0.55200
C408        C  0.97958169  0.43951165  0.32651081     0.84900
O409        O  0.91292062  0.39372705  0.32545008    -0.57100
O410        O  0.94064303  0.41986909  0.28274079    -0.60400
In411      In  0.92584462  0.56914172  0.31904268     1.36900
C412        C  0.91341957  0.51829997  0.33279378     0.77300
O413        O  0.90459487  0.56029239  0.28030186    -0.61100
O414        O  0.93851359  0.58613006  0.27945121    -0.52000
C415        C  0.90478526  0.61387042  0.34216944     0.70000
O416        O  0.91316908  0.59407088  0.35575803    -0.46900
C417        C  0.97944964  0.56951062  0.32073725     0.74700
O418        O  0.93175468  0.53151175  0.34397363    -0.58800
O419        O  0.96631527  0.55464604  0.30526548    -0.48900
O420        O  0.89835946  0.53233149  0.31783830    -0.55200
C421        C  0.92092294  0.57372472  0.26633519     0.84900
O422        O  0.90393313  0.60919111  0.31739576    -0.57100
O423        O  0.96527196  0.58382472  0.33617826    -0.60400
In424      In  0.92351865  0.43337962  0.18665602     1.36900
C425        C  0.97470338  0.41984135  0.17355313     0.77300
O426        O  0.91649981  0.47164384  0.16248059    -0.61100
O427        O  0.93474253  0.47381114  0.20089214    -0.52000
C428        C  0.87563617  0.41674090  0.16641135     0.70000
O429        O  0.89744367  0.41285924  0.15372279    -0.46900
C430        C  0.92019440  0.42839355  0.24003179     0.74700
O431        O  0.96033614  0.40505398  0.18833892    -0.58800
O432        O  0.90764454  0.44609885  0.22688642    -0.48900
O433        O  0.96165029  0.43847764  0.16221370    -0.55200
C434        C  0.92595406  0.48627682  0.18075050     0.84900
O435        O  0.87928740  0.42575551  0.18956373    -0.57100
O436        O  0.93359014  0.41197310  0.22580378    -0.60400
In437      In  0.32334040  0.07465386  0.56393024     1.36900
C438        C  0.33577780  0.08614521  0.51213767     0.77300
O439        O  0.34052542  0.03461187  0.57830541    -0.61100
O440        O  0.30634642  0.03484921  0.55291056    -0.52000
C441        C  0.34837881  0.09665976  0.60681642     0.70000
O442        O  0.36135764  0.08537971  0.58809746    -0.46900
C443        C  0.27047607  0.08047007  0.57162104     0.74700
O444        O  0.32175424  0.10172838  0.52653924    -0.58800
O445        O  0.28472710  0.06426054  0.58501570    -0.48900
O446        O  0.34659476  0.06724004  0.52517643    -0.55200
C447        C  0.32264212  0.02115564  0.56664879     0.84900
O448        O  0.32380342  0.09979100  0.60158490    -0.57100
O449        O  0.28346705  0.09509590  0.55548895    -0.60400
In450      In  0.18778480  0.07506805  0.56999199     1.36900
C451        C  0.17156843  0.02518242  0.58291903     0.77300
O452        O  0.16998467  0.08947193  0.53062685    -0.61100
O453        O  0.20098520  0.05984807  0.52998942    -0.52000
C454        C  0.16392683  0.11874233  0.59179526     0.70000
O455        O  0.15085185  0.09942420  0.58227197    -0.46900
C456        C  0.24095319  0.08041308  0.57292702     0.74700
O457        O  0.16134351  0.03900577  0.56435462    -0.58800
O458        O  0.22668621  0.09291284  0.55605557    -0.48900
O459        O  0.18760262  0.03806692  0.59763367    -0.55200
C460        C  0.18512054  0.07450804  0.51671929     0.84900
O461        O  0.18884418  0.11430642  0.59296918    -0.57100
O462        O  0.22791050  0.06630176  0.58951381    -0.60400
In463      In  0.18629759  0.07204051  0.43413847     1.36900
C464        C  0.17326769  0.02041940  0.42429391     0.77300
O465        O  0.22559630  0.06143489  0.41507178    -0.61100
O466        O  0.22502146  0.09322157  0.44364129    -0.52000
C467        C  0.16096711  0.11461054  0.41153865     0.70000
O468        O  0.14918901  0.09753099  0.42594804    -0.46900
C469        C  0.18508620  0.07411026  0.48744936     0.74700
O470        O  0.16369425  0.03390511  0.44343564    -0.58800
O471        O  0.20240019  0.06087847  0.47447210    -0.48900
O472        O  0.18594903  0.03437014  0.40742634    -0.55200
C473        C  0.23885787  0.07820247  0.42850472     0.84900
O474        O  0.18471714  0.10792211  0.40557060    -0.57100
O475        O  0.16822589  0.08674093  0.47325132    -0.60400
In476      In  0.32111637  0.07332165  0.43167846     1.36900
C477        C  0.33540676  0.08645419  0.48222816     0.77300
O478        O  0.28238760  0.09641580  0.43872263    -0.61100
O479        O  0.28124434  0.05848884  0.41887364    -0.52000
C480        C  0.33957501  0.09200114  0.38399521     0.70000
O481        O  0.35468495  0.08990172  0.40435138    -0.46900
C482        C  0.32501282  0.02011220  0.43442784     0.74700
O483        O  0.34761085  0.06888647  0.46856892    -0.58800
O484        O  0.30730997  0.03372155  0.44640153    -0.48900
O485        O  0.31935359  0.10079575  0.46858764    -0.55200
C486        C  0.26823829  0.07817288  0.42827277     0.84900
O487        O  0.31535455  0.08745771  0.38908998    -0.57100
O488        O  0.34168076  0.03367679  0.42107072    -0.60400
In489      In  0.17770423  0.94350634  0.57191032     1.36900
C490        C  0.16878373  0.99559492  0.58341179     0.77300
O491        O  0.21706627  0.94895332  0.59332042    -0.61100
O492        O  0.21626523  0.92247513  0.55982176    -0.52000
C493        C  0.14750781  0.90281662  0.59115083     0.70000
O494        O  0.13763423  0.92421890  0.58171163    -0.46900
C495        C  0.17702313  0.94319392  0.51860299     0.74700
O496        O  0.15731210  0.98346015  0.56455530    -0.58800
O497        O  0.19466150  0.95484166  0.53219706    -0.48900
O498        O  0.18120084  0.98025231  0.59945337    -0.55200
C499        C  0.23032470  0.93460577  0.57694700     0.84900
O500        O  0.17264463  0.90371315  0.59424631    -0.57100
O501        O  0.15882438  0.93210410  0.53214432    -0.60400
In502      In  0.32143839  0.93761443  0.43836393     1.36900
C503        C  0.33116963  0.92709764  0.49077494     0.77300
O504        O  0.34242509  0.97580976  0.42512368    -0.61100
O505        O  0.30627578  0.97872157  0.44766304    -0.52000
C506        C  0.34618321  0.91520926  0.39497380     0.70000
O507        O  0.35942559  0.92343034  0.41494555    -0.46900
C508        C  0.26832718  0.93259425  0.43205344     0.74700
O509        O  0.34151205  0.94635973  0.47821247    -0.58800
O510        O  0.28194707  0.94959352  0.41925662    -0.48900
O511        O  0.31966168  0.91040894  0.47570748    -0.55200
C512        C  0.32488730  0.99084675  0.43577892     0.84900
O513        O  0.32122125  0.91531621  0.39908503    -0.57100
O514        O  0.28203608  0.91705474  0.44688599    -0.60400
In515      In  0.31320604  0.93910736  0.57128101     1.36900
C516        C  0.32873175  0.92738221  0.52055868     0.77300
O517        O  0.27380822  0.91827995  0.56208387    -0.61100
O518        O  0.27330033  0.95230611  0.58781378    -0.52000
C519        C  0.33367699  0.91672138  0.61671045     0.70000
O520        O  0.34672667  0.91682417  0.59489918    -0.46900
C521        C  0.31988623  0.99204653  0.56903459     0.74700
O522        O  0.33858550  0.94604143  0.53428502    -0.58800
O523        O  0.30039537  0.98012421  0.55845253    -0.48900
O524        O  0.31351418  0.91204603  0.53385688    -0.55200
C525        C  0.25990593  0.93451283  0.57604945     0.84900
O526        O  0.31034158  0.92617802  0.61440644    -0.57100
O527        O  0.33616496  0.97699035  0.58155938    -0.60400
In528      In  0.18545026  0.93893941  0.43678134     1.36900
C529        C  0.17353162  0.99058670  0.42487331     0.77300
O530        O  0.16109760  0.93195106  0.47457859    -0.61100
O531        O  0.19929615  0.95055508  0.47742689    -0.52000
C532        C  0.15998361  0.89515374  0.41686272     0.70000
O533        O  0.15174000  0.91886642  0.41260934    -0.46900
C534        C  0.23871474  0.93266237  0.43170309     0.74700
O535        O  0.16267837  0.97782014  0.44377626    -0.58800
O536        O  0.22524644  0.92161987  0.44998167    -0.48900
O537        O  0.18775701  0.97605153  0.40947876    -0.55200
C538        C  0.17888346  0.94195732  0.48948264     0.84900
O539        O  0.18192783  0.89421764  0.42930282    -0.57100
O540        O  0.22478214  0.94545440  0.41462948    -0.60400
In541      In  0.68407304  0.92979909  0.56529605     1.36900
C542        C  0.67363385  0.91910869  0.51296383     0.77300
O543        O  0.66436413  0.96847855  0.57994009    -0.61100
O544        O  0.69880836  0.97092228  0.55508471    -0.52000
C545        C  0.65270887  0.90819165  0.60435896     0.70000
O546        O  0.64351705  0.91721833  0.58253384    -0.46900
C547        C  0.73715111  0.92540497  0.57431061     0.74700
O548        O  0.66436900  0.93906322  0.52554118    -0.58800
O549        O  0.72168554  0.93958879  0.58863541    -0.48900
O550        O  0.68589718  0.90240431  0.52781879    -0.55200
C551        C  0.68121305  0.98331719  0.56847082     0.84900
O552        O  0.67806047  0.90674117  0.60464049    -0.57100
O553        O  0.72518845  0.91114584  0.55715117    -0.60400
In554      In  0.67417206  0.06516377  0.44067907     1.36900
C555        C  0.66522859  0.07550582  0.49285304     0.77300
O556        O  0.65531006  0.02616529  0.42644389    -0.61100
O557        O  0.69117766  0.02505225  0.44957659    -0.52000
C558        C  0.64532970  0.08980844  0.40217036     0.70000
O559        O  0.63455836  0.08046526  0.42308356    -0.46900
C560        C  0.72644946  0.07130080  0.43130352     0.74700
O561        O  0.65439431  0.05635438  0.48058766    -0.58800
O562        O  0.71248887  0.05473910  0.41839472    -0.48900
O563        O  0.67764746  0.09156499  0.47779627    -0.55200
C564        C  0.67390940  0.01212092  0.43669105     0.84900
O565        O  0.67059515  0.08867372  0.40238202    -0.57100
O566        O  0.71330173  0.08609743  0.44734640    -0.60400
In567      In  0.68275083  0.06605220  0.57283778     1.36900
C568        C  0.66719032  0.07599376  0.52244167     0.77300
O569        O  0.72007166  0.08846995  0.56115855    -0.61100
O570        O  0.72319823  0.05877762  0.59171784    -0.52000
C571        C  0.65810113  0.08966181  0.61527554     0.70000
O572        O  0.64879704  0.09121154  0.59173552    -0.46900
C573        C  0.68109751  0.01261014  0.57050222     0.74700
O574        O  0.65666821  0.05805604  0.53680430    -0.58800
O575        O  0.69919511  0.02633870  0.55967696    -0.48900
O576        O  0.68279003  0.09148044  0.53497040    -0.55200
C577        C  0.73516739  0.07525463  0.57683301     0.84900
O578        O  0.68013948  0.07722531  0.61659731    -0.57100
O579        O  0.66344991  0.02609915  0.58296486    -0.60400
In580      In  0.68513542  0.93057084  0.43148672     1.36900
C581        C  0.67337842  0.91852634  0.48306050     0.77300
O582        O  0.72492476  0.91185650  0.44182789    -0.61100
O583        O  0.72407266  0.94629639  0.41615515    -0.52000
C584        C  0.66707266  0.90909703  0.38473047     0.70000
O585        O  0.65198776  0.91228771  0.40496684    -0.46900
C586        C  0.67680858  0.98317861  0.43371515     0.74700
O587        O  0.66190833  0.93687935  0.46989238    -0.58800
O588        O  0.69814016  0.97167381  0.44105485    -0.48900
O589        O  0.68755433  0.90290373  0.46871959    -0.55200
C590        C  0.73805377  0.92925102  0.42884382     0.84900
O591        O  0.69125793  0.91413607  0.38953719    -0.57100
O592        O  0.65917203  0.96785701  0.42411908    -0.60400
In593      In  0.80949783  0.06845448  0.43360637     1.36900
C594        C  0.82594538  0.01824191  0.42186724     0.77300
O595        O  0.83429669  0.07759947  0.47056265    -0.61100
O596        O  0.79730156  0.05691052  0.47484620    -0.52000
C597        C  0.82846333  0.11530558  0.41455065     0.70000
O598        O  0.83955295  0.09324276  0.40821976    -0.46900
C599        C  0.75595181  0.07158568  0.43007053     0.74700
O600        O  0.83659401  0.03236436  0.43984187    -0.58800
O601        O  0.76939451  0.08276330  0.44815678    -0.48900
O602        O  0.80947077  0.03098051  0.40711156    -0.55200
C603        C  0.81719248  0.06742170  0.48620740     0.84900
O604        O  0.80718709  0.11256372  0.42770298    -0.57100
O605        O  0.76989661  0.05935486  0.41255404    -0.60400
In606      In  0.81933454  0.93946151  0.57215903     1.36900
C607        C  0.83028146  0.99179389  0.58345118     0.77300
O608        O  0.83879106  0.92652420  0.53296712    -0.61100
O609        O  0.80466167  0.95239890  0.53161532    -0.52000
C610        C  0.84789139  0.89785614  0.59381249     0.70000
O611        O  0.85814668  0.91592434  0.57950885    -0.46900
C612        C  0.76673311  0.92793555  0.57543568     0.74700
O613        O  0.84280819  0.97805895  0.56630864    -0.58800
O614        O  0.78199728  0.91829687  0.55755763    -0.48900
O615        O  0.81478447  0.97795238  0.59785768    -0.55200
C616        C  0.82239162  0.93962117  0.51864973     0.84900
O617        O  0.82377969  0.90283452  0.59999322    -0.57100
O618        O  0.77862633  0.94210587  0.59273047    -0.60400
In619      In  0.81726378  0.07270050  0.56861926     1.36900
C620        C  0.83023673  0.02172798  0.58272831     0.77300
O621        O  0.77983593  0.06629043  0.59333959    -0.61100
O622        O  0.77643392  0.08653047  0.55569338    -0.52000
C623        C  0.83816337  0.12041826  0.58512710     0.70000
O624        O  0.85229258  0.09915317  0.58431916    -0.46900
C625        C  0.81885857  0.06854391  0.51540254     0.74700
O626        O  0.84211908  0.03445361  0.56440196    -0.58800
O627        O  0.80030010  0.05932525  0.52969278    -0.48900
O628        O  0.81513690  0.03637228  0.59709278    -0.55200
C629        C  0.76455418  0.07672902  0.57576297     0.84900
O630        O  0.81382629  0.11632877  0.58013204    -0.57100
O631        O  0.83762418  0.07954752  0.52825266    -0.60400
In632      In  0.81949049  0.93736211  0.43581399     1.36900
C633        C  0.82870880  0.98856417  0.42199521     0.77300
O634        O  0.78086405  0.94476321  0.41367649    -0.61100
O635        O  0.78049555  0.91993637  0.44864930    -0.52000
C636        C  0.84019134  0.89135645  0.41473503     0.70000
O637        O  0.85414249  0.91247406  0.41587572    -0.46900
C638        C  0.82274873  0.93943733  0.48925662     0.74700
O639        O  0.84226634  0.97633301  0.43967320    -0.58800
O640        O  0.80383924  0.94978503  0.47598700    -0.48900
O641        O  0.81414919  0.97343476  0.40797245    -0.55200
C642        C  0.76725023  0.93097012  0.43004131     0.84900
O643        O  0.81636402  0.89498124  0.42214096    -0.57100
O644        O  0.84102299  0.92855004  0.47523784    -0.60400
C645        C  0.91684813  0.25964929  0.57259065    -0.02800
C646        C  0.08211463  0.25576578  0.57655284    -0.02800
C647        C  0.08412212  0.25883856  0.41590507    -0.02800
C648        C  0.92233856  0.24467969  0.40998348    -0.02800
C649        C  0.05404830  0.26048587  0.40545875    -0.05500
C650        C  0.04080700  0.28565025  0.40254520    -0.05400
C651        C  0.01287336  0.28760690  0.39961864    -0.23600
C652        C  0.99729374  0.26438029  0.39874392     0.18600
C653        C  0.01026031  0.23932801  0.39702587     0.15800
C654        C  0.03850777  0.23768460  0.39847662    -0.18600
C655        C  0.99475325  0.21608598  0.39598621    -0.20500
C656        C  0.96676274  0.21760181  0.39884309    -0.13000
C657        C  0.95287107  0.24252425  0.40142031     0.03700
C658        C  0.96909994  0.26589776  0.40070258    -0.25200
H659        H  0.05191676  0.30418879  0.40375292     0.08700
H660        H  0.00341797  0.30727053  0.39942670     0.12300
H661        H  0.04753272  0.21826022  0.39530294     0.12300
H662        H  0.00437759  0.19653155  0.39502015     0.12000
H663        H  0.95660091  0.19868524  0.40110506     0.12600
H664        H  0.96042417  0.28553786  0.40326520     0.14500
C665        C  0.09516955  0.25992200  0.54810198    -0.05500
C666        C  0.11421266  0.24179336  0.53671261    -0.05400
C667        C  0.11861891  0.24090520  0.50903595    -0.23600
C668        C  0.10333688  0.25713084  0.49183288     0.18600
C669        C  0.08616604  0.27682874  0.50268481     0.15800
C670        C  0.08360612  0.27931371  0.53052256    -0.18600
C671        C  0.07007271  0.29230537  0.48561645    -0.20500
C672        C  0.06932460  0.28678658  0.45820315    -0.13000
C673        C  0.08489140  0.26568686  0.44674520     0.03700
C674        C  0.10374712  0.25277781  0.46408199    -0.25200
H675        H  0.12473851  0.22687658  0.54825995     0.08700
H676        H  0.13234275  0.22586629  0.50099901     0.12300
H677        H  0.06892293  0.29358208  0.53825659     0.12300
H678        H  0.05711868  0.30801122  0.49359578     0.12000
H679        H  0.05641144  0.29962329  0.44670657     0.12600
H680        H  0.11832150  0.23846346  0.45634948     0.14500
C681        C  0.94793345  0.26083277  0.57714171    -0.05500
C682        C  0.95781572  0.26372766  0.60368311    -0.05400
C683        C  0.98546207  0.26437136  0.60906873    -0.23600
C684        C  0.00413604  0.26060268  0.58830498     0.18600
C685        C  0.99461775  0.25673136  0.56199508     0.15800
C686        C  0.96716384  0.25928887  0.55630849    -0.18600
C687        C  0.01254623  0.24900300  0.54188614    -0.20500
C688        C  0.03977796  0.24630152  0.54756877    -0.13000
C689        C  0.05075604  0.25515303  0.57237214     0.03700
C690        C  0.03207027  0.26053602  0.59326302    -0.25200
H691        H  0.94394468  0.26534423  0.62038045     0.08700
H692        H  0.99218904  0.26700635  0.62960628     0.12300
H693        H  0.96146192  0.25980552  0.53543100     0.12300
H694        H  0.00536689  0.24392127  0.52195338     0.12000
H695        H  0.05234506  0.23784245  0.53193382     0.12600
H696        H  0.03878830  0.26431856  0.61348880     0.14500
C697        C  0.90886134  0.25622299  0.54237958    -0.05500
C698        C  0.88954711  0.27295369  0.52951306    -0.05400
C699        C  0.88674008  0.27292758  0.50154010    -0.23600
C700        C  0.90298146  0.25607181  0.48574766     0.18600
C701        C  0.91939839  0.23674532  0.49851798     0.15800
C702        C  0.92043992  0.23549266  0.52669933    -0.18600
C703        C  0.93538827  0.21970034  0.48292847    -0.20500
C704        C  0.93638268  0.22282294  0.45509348    -0.13000
C705        C  0.92162755  0.24329866  0.44154517     0.03700
C706        C  0.90324605  0.25839289  0.45753637    -0.25200
H707        H  0.87715579  0.28687363  0.54083252     0.08700
H708        H  0.87288749  0.28706344  0.49225144     0.12300
H709        H  0.93319420  0.22050513  0.53622047     0.12300
H710        H  0.94766784  0.20420950  0.49228765     0.12000
H711        H  0.94860749  0.20852200  0.44453316     0.12600
H712        H  0.88853729  0.27158187  0.44830490     0.14500
C713        C  0.84856115  0.14830311  0.58940651    -0.05500
C714        C  0.83067794  0.17034036  0.58681764    -0.05400
C715        C  0.83997873  0.19685001  0.58665780    -0.23600
C716        C  0.86750926  0.20223115  0.58920512     0.18600
C717        C  0.88554337  0.18045275  0.59326493     0.15800
C718        C  0.87608425  0.15367068  0.59327740    -0.18600
C719        C  0.91295115  0.18574816  0.59596017    -0.20500
C720        C  0.92268618  0.21179420  0.59266375    -0.13000
C721        C  0.90539125  0.23394118  0.58650944     0.03700
C722        C  0.87741062  0.22872930  0.58613168    -0.25200
H723        H  0.80936434  0.16707386  0.58384398     0.08700
H724        H  0.82565221  0.21311727  0.58366648     0.12300
H725        H  0.89023152  0.13707953  0.59523602     0.12300
H726        H  0.92719859  0.16944514  0.59920856     0.12000
H727        H  0.94432467  0.21357295  0.59269684     0.12600
H728        H  0.86356376  0.24489863  0.58105820     0.14500
C729        C  0.83983008  0.14247220  0.41000633    -0.05500
C730        C  0.82923217  0.16384945  0.42533745    -0.05400
C731        C  0.84152191  0.18883884  0.42558329    -0.23600
C732        C  0.86469638  0.19321437  0.41031506     0.18600
C733        C  0.87463691  0.17275689  0.39331024     0.15800
C734        C  0.86223581  0.14726323  0.39329022    -0.18600
C735        C  0.89709035  0.17823712  0.37713743    -0.20500
C736        C  0.91109007  0.20245321  0.38011872    -0.13000
C737        C  0.90405830  0.22102070  0.40051298     0.03700
C738        C  0.87877885  0.21733015  0.41300203    -0.25200
H739        H  0.81201358  0.16093332  0.43837692     0.08700
H740        H  0.83350107  0.20438997  0.43856186     0.12300
H741        H  0.87046039  0.13114421  0.38116678     0.12300
H742        H  0.90418817  0.16362691  0.36266327     0.12000
H743        H  0.92784255  0.20613847  0.36676922     0.12600
H744        H  0.87075926  0.23245868  0.42631310     0.14500
C745        C  0.14881320  0.14130038  0.40479006    -0.05500
C746        C  0.16297572  0.16067158  0.38987806    -0.05400
C747        C  0.15285418  0.18708555  0.38717012    -0.23600
C748        C  0.12863963  0.19487880  0.39980280     0.18600
C749        C  0.11450932  0.17537562  0.41475688     0.15800
C750        C  0.12429266  0.14888711  0.41668128    -0.18600
C751        C  0.09136633  0.18279682  0.42878210    -0.20500
C752        C  0.08237572  0.20924208  0.42850503    -0.13000
C753        C  0.09511877  0.22938357  0.41296630     0.03700
C754        C  0.11867667  0.22176200  0.39859002    -0.25200
H755        H  0.18220838  0.15558384  0.38088919     0.08700
H756        H  0.16437179  0.20159909  0.37582211     0.12300
H757        H  0.11338034  0.13443997  0.42873821     0.12300
H758        H  0.08057753  0.16825608  0.44081212     0.12000
H759        H  0.06505852  0.21426250  0.44083574     0.12600
H760        H  0.12974754  0.23666210  0.38734408     0.14500
C761        C  0.09147810  0.22813046  0.58843726    -0.05500
C762        C  0.07481480  0.20518478  0.58704102    -0.05400
C763        C  0.08519880  0.17936389  0.59069659    -0.23600
C764        C  0.11253163  0.17537083  0.59588261     0.18600
C765        C  0.12916249  0.19782033  0.60006352     0.15800
C766        C  0.11834520  0.22405158  0.59727070    -0.18600
C767        C  0.15672055  0.19354376  0.60492306    -0.20500
C768        C  0.16780640  0.16752772  0.60396963    -0.13000
C769        C  0.15152782  0.14522876  0.59840796     0.03700
C770        C  0.12368842  0.14931502  0.59533924    -0.25200
H771        H  0.05385124  0.20645399  0.58150236     0.08700
H772        H  0.07200956  0.16236999  0.58795393     0.12300
H773        H  0.13158038  0.24114561  0.59889846     0.12300
H774        H  0.16993842  0.21040851  0.60818072     0.12000
H775        H  0.18935979  0.16501626  0.60628896     0.12600
H776        H  0.11089275  0.13237171  0.59089106     0.14500
C777        C  0.90339629  0.36934907  0.36614106    -0.05500
C778        C  0.90621357  0.36974388  0.39421892    -0.05400
C779        C  0.90805200  0.34574447  0.40889708    -0.23600
C780        C  0.90677980  0.32078227  0.39584335     0.18600
C781        C  0.90218423  0.32012543  0.36793824     0.15800
C782        C  0.90059032  0.34433352  0.35323256    -0.18600
C783        C  0.90102206  0.29526485  0.35492986    -0.20500
C784        C  0.90542007  0.27135579  0.36915144    -0.13000
C785        C  0.91096869  0.27118839  0.39702298     0.03700
C786        C  0.91172134  0.29665187  0.40997326    -0.25200
H787        H  0.90855671  0.38861864  0.40470440     0.08700
H788        H  0.91138336  0.34671915  0.43035910     0.12300
H789        H  0.89852493  0.34364021  0.33159100     0.12300
H790        H  0.89774295  0.29430837  0.33345814     0.12000
H791        H  0.90587660  0.25289777  0.35775570     0.12600
H792        H  0.91897089  0.29833883  0.43032628     0.14500
C793        C  0.09309890  0.36613581  0.34587898    -0.05500
C794        C  0.08580675  0.34484422  0.32881570    -0.05400
C795        C  0.08799996  0.31811056  0.33716771    -0.23600
C796        C  0.09780115  0.31190134  0.36277500     0.18600
C797        C  0.10744941  0.33284752  0.37922176     0.15800
C798        C  0.10485876  0.35991182  0.37084087    -0.18600
C799        C  0.11811458  0.32634271  0.40438905    -0.20500
C800        C  0.11540805  0.30037703  0.41470537    -0.13000
C801        C  0.10081464  0.28049641  0.40058239     0.03700
C802        C  0.09562315  0.28559854  0.37314237    -0.25200
H803        H  0.07684645  0.34890297  0.30938440     0.08700
H804        H  0.08072103  0.30241472  0.32409583     0.12300
H805        H  0.11089262  0.37600773  0.38409375     0.12300
H806        H  0.12692163  0.34172664  0.41688877     0.12000
H807        H  0.12243981  0.29699651  0.43497122     0.12600
H808        H  0.08585328  0.27034251  0.36122041     0.14500
C809        C  0.21854094  0.39066065  0.10905375    -0.05500
C810        C  0.19927392  0.37534179  0.09509450    -0.05400
C811        C  0.17270820  0.37337294  0.10472320    -0.23600
C812        C  0.16536421  0.38512832  0.12931796     0.18600
C813        C  0.18598111  0.39512826  0.14596770     0.15800
C814        C  0.21264651  0.39653170  0.13628005    -0.18600
C815        C  0.17925342  0.40595697  0.17102209    -0.20500
C816        C  0.15230899  0.40865926  0.17871311    -0.13000
C817        C  0.13122147  0.40081220  0.16157024     0.03700
C818        C  0.13796861  0.38810200  0.13710564    -0.25200
H819        H  0.20397508  0.36604304  0.07606544     0.08700
H820        H  0.15770827  0.36377761  0.09236271     0.12300
H821        H  0.22773863  0.40635492  0.14840343     0.12300
H822        H  0.19476164  0.41358715  0.18416273     0.12000
H823        H  0.14797569  0.41831481  0.19773735     0.12600
H824        H  0.12209966  0.38161684  0.12378783     0.14500
C825        C  0.23871149  0.40245744  0.96263552    -0.05500
C826        C  0.21273301  0.39722639  0.97327634    -0.05400
C827        C  0.20830603  0.39640872  0.00095263    -0.23600
C828        C  0.22996059  0.39808043  0.01867987     0.18600
C829        C  0.25634869  0.39724570  0.00826487     0.15800
C830        C  0.26067316  0.39914673  0.98041251    -0.18600
C831        C  0.27804694  0.39706168  0.02590937    -0.20500
C832        C  0.27366875  0.39803387  0.05350296    -0.13000
C833        C  0.24732362  0.39952243  0.06481182     0.03700
C834        C  0.22567391  0.40118900  0.04647198    -0.25200
H835        H  0.19514552  0.39536632  0.96078550     0.08700
H836        H  0.18788821  0.39505181  0.00846005     0.12300
H837        H  0.28102745  0.40160342  0.97304230     0.12300
H838        H  0.29852208  0.39690046  0.01838969     0.12000
H839        H  0.29153546  0.39901860  0.06580137     0.12600
H840        H  0.20548956  0.40544299  0.05353760     0.14500
C841        C  0.24949956  0.54849301  0.92507804    -0.05500
C842        C  0.24608774  0.53650587  0.89952420    -0.05400
C843        C  0.24520080  0.50869637  0.89642075    -0.23600
C844        C  0.24811925  0.49182578  0.91864115     0.18600
C845        C  0.25326951  0.50303027  0.94395093     0.15800
C846        C  0.25520311  0.53085561  0.94676839    -0.18600
C847        C  0.25603314  0.48629592  0.96626417    -0.20500
C848        C  0.25301543  0.45867249  0.96368714    -0.13000
C849        C  0.24842795  0.44652793  0.93833307     0.03700
C850        C  0.24607999  0.46395575  0.91589767    -0.25200
H851        H  0.24457396  0.54826452  0.88152478     0.08700
H852        H  0.24209990  0.50040967  0.87654732     0.12300
H853        H  0.26193042  0.53835122  0.96594708     0.12300
H854        H  0.25960860  0.49467089  0.98602047     0.12000
H855        H  0.25382900  0.44763528  0.98218871     0.12600
H856        H  0.24218527  0.45562321  0.89618163     0.14500
C857        C  0.12758117  0.59297084  0.14235766    -0.05500
C858        C  0.12815459  0.60256480  0.11584423    -0.05400
C859        C  0.15251955  0.60369422  0.10163264    -0.23600
C860        C  0.17664090  0.59452421  0.11340347     0.18600
C861        C  0.17653627  0.58610696  0.14044172     0.15800
C862        C  0.15214441  0.58586803  0.15487642    -0.18600
C863        C  0.20058775  0.57680489  0.15210763    -0.20500
C864        C  0.22384577  0.57342082  0.13647088    -0.13000
C865        C  0.22363371  0.57899671  0.10865770     0.03700
C866        C  0.20039991  0.59205184  0.09810398    -0.25200
H867        H  0.10965027  0.60823325  0.10578480     0.08700
H868        H  0.15223833  0.61039446  0.08089026     0.12300
H869        H  0.15208177  0.57842726  0.17538421     0.12300
H870        H  0.20107192  0.57077977  0.17305783     0.12000
H871        H  0.24157713  0.56459442  0.14566191     0.12600
H872        H  0.19998726  0.59915247  0.07756282     0.14500
C873        C  0.25218670  0.53833889  0.09271339    -0.05500
C874        C  0.27452104  0.52613748  0.07965488    -0.05400
C875        C  0.27828531  0.49820133  0.07945109    -0.23600
C876        C  0.25873775  0.48127701  0.09038904     0.18600
C877        C  0.23526094  0.49285664  0.10144822     0.15800
C878        C  0.23230314  0.52093123  0.10305305    -0.18600
C879        C  0.21426437  0.47622216  0.10935108    -0.20500
C880        C  0.21655693  0.44844953  0.10666825    -0.13000
C881        C  0.24091975  0.43573632  0.09836444     0.03700
C882        C  0.26169808  0.45302824  0.08940559    -0.25200
H883        H  0.28933722  0.53844356  0.06965222     0.08700
H884        H  0.29608560  0.48983072  0.06991858     0.12300
H885        H  0.21356216  0.52886336  0.11087229     0.12300
H886        H  0.19545914  0.48475201  0.11657312     0.12000
H887        H  0.19839646  0.43742668  0.11047991     0.12600
H888        H  0.28008805  0.44456944  0.08123756     0.14500
C889        C  0.24230994  0.57429663  0.06050898    -0.05500
C890        C  0.22023428  0.56119401  0.04841170    -0.05400
C891        C  0.21555114  0.56268323  0.02082053    -0.23600
C892        C  0.23294880  0.57705993  0.00417853     0.18600
C893        C  0.25465214  0.59082816  0.01564931     0.15800
C894        C  0.25951984  0.58904330  0.04338586    -0.18600
C895        C  0.27212993  0.60497384  0.99896842    -0.20500
C896        C  0.26961812  0.60359202  0.97108619    -0.13000
C897        C  0.24948906  0.58780469  0.95865233     0.03700
C898        C  0.23023960  0.57600676  0.97611856    -0.25200
H899        H  0.20669385  0.54928803  0.06046872     0.08700
H900        H  0.19872633  0.55182497  0.01239541     0.12300
H901        H  0.27775504  0.59799687  0.05082280     0.12300
H902        H  0.28867119  0.61621697  0.00746199     0.12000
H903        H  0.28478618  0.61398931  0.95984585     0.12600
H904        H  0.21511773  0.56273437  0.96800050     0.14500
C905        C  0.22618088  0.59168271  0.91176003    -0.05500
C906        C  0.22812767  0.59553365  0.88360536    -0.05400
C907        C  0.20518190  0.59689908  0.86717418    -0.23600
C908        C  0.17931085  0.59492575  0.87826030     0.18600
C909        C  0.17660013  0.59393271  0.90636926     0.15800
C910        C  0.19975125  0.59323296  0.92277124    -0.18600
C911        C  0.15072579  0.59220996  0.91770754    -0.20500
C912        C  0.12792341  0.59002525  0.90131225    -0.13000
C913        C  0.13034779  0.58994365  0.87319591     0.03700
C914        C  0.15621572  0.59308399  0.86179506    -0.25200
H915        H  0.24751851  0.59502110  0.87367887     0.08700
H916        H  0.20778321  0.59814038  0.84562196     0.12300
H917        H  0.19638243  0.59321299  0.94396226     0.12300
H918        H  0.14818881  0.59148026  0.93929800     0.12000
H919        H  0.10841317  0.58757267  0.91069003     0.12600
H920        H  0.15852761  0.59292655  0.84015938     0.14500
C921        C  0.21624217  0.41426502  0.91803438    -0.05500
C922        C  0.19465928  0.43125809  0.92635591    -0.05400
C923        C  0.16980213  0.43121376  0.91382667    -0.23600
C924        C  0.16527825  0.41451988  0.89199415     0.18600
C925        C  0.18625983  0.39774942  0.88228062     0.15800
C926        C  0.21175971  0.39758422  0.89540755    -0.18600
C927        C  0.18117848  0.38195321  0.85939465    -0.20500
C928        C  0.15605540  0.38353956  0.84615858    -0.13000
C929        C  0.13523107  0.40012861  0.85618702     0.03700
C930        C  0.14004900  0.41511108  0.87941935    -0.25200
H931        H  0.19682804  0.44437509  0.94353262     0.08700
H932        H  0.15402795  0.44441251  0.92131541     0.12300
H933        H  0.22772443  0.38459562  0.88808864     0.12300
H934        H  0.19680161  0.36895774  0.85133216     0.12000
H935        H  0.15298986  0.37205283  0.82798770     0.12600
H936        H  0.12447099  0.42853216  0.88697302     0.14500
C937        C  0.09399931  0.37408194  0.63584890    -0.05500
C938        C  0.09933694  0.37652720  0.60827495    -0.05400
C939        C  0.10138510  0.35372680  0.59200363    -0.23600
C940        C  0.09745161  0.32799052  0.60280458     0.18600
C941        C  0.09269877  0.32510850  0.63052635     0.15800
C942        C  0.09147316  0.34812660  0.64700584    -0.18600
C943        C  0.08831359  0.29934574  0.64097537    -0.20500
C944        C  0.08665554  0.27702427  0.62387346    -0.13000
C945        C  0.08950803  0.27961362  0.59570899     0.03700
C946        C  0.09701496  0.30533626  0.58603354    -0.25200
H947        H  0.10117533  0.39615041  0.59913623     0.08700
H948        H  0.10495103  0.35633287  0.57064385     0.12300
H949        H  0.08708722  0.34590070  0.66823929     0.12300
H950        H  0.08501750  0.29656614  0.66234312     0.12000
H951        H  0.08189843  0.25778940  0.63267670     0.12600
H952        H  0.10199838  0.30869193  0.56519562     0.14500
C953        C  0.89835729  0.37307546  0.64023510    -0.05500
C954        C  0.88735361  0.35198192  0.65549911    -0.05400
C955        C  0.88537940  0.32581922  0.64481073    -0.23600
C956        C  0.89451550  0.32007508  0.61862616     0.18600
C957        C  0.90413053  0.34161311  0.60284784     0.15800
C958        C  0.90563553  0.36775889  0.61350275    -0.18600
C959        C  0.91416911  0.33650341  0.57723115    -0.20500
C960        C  0.91659016  0.31031970  0.56792582    -0.13000
C961        C  0.90757742  0.28793043  0.58297312     0.03700
C962        C  0.89580864  0.29326872  0.60845327    -0.25200
H963        H  0.88170281  0.35534426  0.67624178     0.08700
H964        H  0.87786683  0.30986026  0.65747672     0.12300
H965        H  0.91418790  0.38368819  0.60144721     0.12300
H966        H  0.92182244  0.35268128  0.56491720     0.12000
H967        H  0.92681564  0.30737663  0.54891485     0.12600
H968        H  0.88964580  0.27669910  0.62105625     0.14500
C969        C  0.34910170  0.09671252  0.35594991    -0.05500
C970        C  0.33255539  0.08967498  0.33409000    -0.05400
C971        C  0.34267185  0.08908536  0.30773048    -0.23600
C972        C  0.36955483  0.09579619  0.30254063     0.18600
C973        C  0.38554423  0.10487577  0.32410635     0.15800
C974        C  0.37540010  0.10516754  0.35058389    -0.18600
C975        C  0.41206747  0.11204401  0.31921051    -0.20500
C976        C  0.42371320  0.10744230  0.29419225    -0.13000
C977        C  0.40931682  0.09531651  0.27269123     0.03700
C978        C  0.38129225  0.09168728  0.27681432    -0.25200
H979        H  0.31209370  0.08315254  0.33752667     0.08700
H980        H  0.32979830  0.08228697  0.29162979     0.12300
H981        H  0.38834544  0.11079083  0.36710347     0.12300
H982        H  0.42451999  0.11956308  0.33533408     0.12000
H983        H  0.44497188  0.11125390  0.29352700     0.12600
H984        H  0.36945932  0.08259618  0.26105494     0.14500
C985        C  0.59938407  0.90586583  0.27247523    -0.05500
C986        C  0.58240556  0.89985278  0.29460688    -0.05400
C987        C  0.59272163  0.89548090  0.32033272    -0.23600
C988        C  0.62027845  0.89747557  0.32523724     0.18600
C989        C  0.63802680  0.90071449  0.30331059     0.15800
C990        C  0.62757716  0.90375619  0.27696814    -0.18600
C991        C  0.66569209  0.90311674  0.30849259    -0.20500
C992        C  0.67524901  0.90410293  0.33502575    -0.13000
C993        C  0.65743679  0.90253585  0.35706002     0.03700
C994        C  0.63002138  0.89818652  0.35186301    -0.25200
H995        H  0.56080176  0.90102876  0.29338272     0.08700
H996        H  0.57879219  0.89263229  0.33683857     0.12300
H997        H  0.64124699  0.90812818  0.26058042     0.12300
H998        H  0.67980428  0.90558215  0.29208001     0.12000
H999        H  0.69651472  0.90743615  0.33827976     0.12600
H1000       H  0.61600928  0.89699995  0.36851393     0.14500
C1001       C  0.35776206  0.90861844  0.36786994    -0.05500
C1002       C  0.33990631  0.90517916  0.34620437    -0.05400
C1003       C  0.34919540  0.90368533  0.31968253    -0.23600
C1004       C  0.37675337  0.90518003  0.31391017     0.18600
C1005       C  0.39519833  0.90704129  0.33541343     0.15800
C1006       C  0.38566520  0.90898200  0.36228588    -0.18600
C1007       C  0.42276032  0.90798314  0.32948981    -0.20500
C1008       C  0.43184673  0.90845192  0.30277787    -0.13000
C1009       C  0.41366527  0.90818991  0.28075922     0.03700
C1010       C  0.38595698  0.90595045  0.28697126    -0.25200
H1011       H  0.31837002  0.90486788  0.34960168     0.08700
H1012       H  0.33465904  0.90205495  0.30357712     0.12300
H1013       H  0.39980542  0.91169358  0.37859786     0.12300
H1014       H  0.43737439  0.90928330  0.34556680     0.12000
H1015       H  0.45324644  0.91072090  0.29978082     0.12600
H1016       H  0.37140083  0.90614664  0.27078008     0.14500
C1017       C  0.41609783  0.94583665  0.24585899    -0.05500
C1018       C  0.42130763  0.95695743  0.22012295    -0.05400
C1019       C  0.41873171  0.98445670  0.21504046    -0.23600
C1020       C  0.41439794  0.00248544  0.23617054     0.18600
C1021       C  0.41157123  0.99240294  0.26238487     0.15800
C1022       C  0.41088691  0.96446345  0.26691289    -0.18600
C1023       C  0.41133849  0.01040347  0.28391743    -0.20500
C1024       C  0.41519803  0.03784432  0.27956176    -0.13000
C1025       C  0.41694182  0.04891192  0.25332016     0.03700
C1026       C  0.41498502  0.03042796  0.23166952    -0.25200
H1027       H  0.42842027  0.94433720  0.20387302     0.08700
H1028       H  0.42233924  0.99177618  0.19485998     0.12300
H1029       H  0.40871770  0.95774283  0.28742752     0.12300
H1030       H  0.40992139  0.00309333  0.30436751     0.12000
H1031       H  0.41740684  0.05036505  0.29712119     0.12600
H1032       H  0.41509731  0.03693146  0.21109657     0.14500
C1033       C  0.55736473  0.92624563  0.24879292    -0.05500
C1034       C  0.54468858  0.95184747  0.24802292    -0.05400
C1035       C  0.51667951  0.95454588  0.24796630    -0.23600
C1036       C  0.50026332  0.93187868  0.24814796     0.18600
C1037       C  0.51220317  0.90623448  0.24790192     0.15800
C1038       C  0.54042579  0.90352509  0.24757328    -0.18600
C1039       C  0.49571590  0.88373335  0.24895669    -0.20500
C1040       C  0.46766550  0.88658343  0.25043415    -0.13000
C1041       C  0.45465323  0.91209684  0.24922848     0.03700
C1042       C  0.47209613  0.93467904  0.24881913    -0.25200
H1043       H  0.55600744  0.97016064  0.24662277     0.08700
H1044       H  0.50783752  0.97451467  0.24758488     0.12300
H1045       H  0.54941487  0.88361176  0.24713369     0.12300
H1046       H  0.50453592  0.86374422  0.24964559     0.12000
H1047       H  0.45707624  0.86852197  0.25364945     0.12600
H1048       H  0.46435617  0.95494417  0.25020046     0.14500
C1049       C  0.63000085  0.09880468  0.37820709    -0.05500
C1050       C  0.60174271  0.10020620  0.37859272    -0.05400
C1051       C  0.58722498  0.10282567  0.35459727    -0.23600
C1052       C  0.60072831  0.10321711  0.32978175     0.18600
C1053       C  0.62914097  0.10359272  0.32938949     0.15800
C1054       C  0.64355921  0.10202366  0.35359453    -0.18600
C1055       C  0.64272262  0.10288952  0.30475260    -0.20500
C1056       C  0.62856688  0.09815097  0.28105264    -0.13000
C1057       C  0.60039818  0.09443017  0.28132908     0.03700
C1058       C  0.58645027  0.10001872  0.30559152    -0.25200
H1059       H  0.59085047  0.09790108  0.39728596     0.08700
H1060       H  0.56541400  0.10259110  0.35535531     0.12300
H1061       H  0.66537597  0.10084003  0.35298973     0.12300
H1062       H  0.66453214  0.10339308  0.30405851     0.12000
H1063       H  0.64002866  0.09400677  0.26298776     0.12600
H1064       H  0.56488124  0.09750123  0.30680974     0.14500
C1065       C  0.60335033  0.94963470  0.24977420    -0.05500
C1066       C  0.61995315  0.96034283  0.22931441    -0.05400
C1067       C  0.62582922  0.98773735  0.22879489    -0.23600
C1068       C  0.61684528  0.00438553  0.24960712     0.18600
C1069       C  0.60617289  0.99255318  0.27302202     0.15800
C1070       C  0.59983338  0.96527231  0.27315236    -0.18600
C1071       C  0.59922400  0.00872348  0.29480645    -0.20500
C1072       C  0.59776954  0.03639401  0.29144209    -0.13000
C1073       C  0.60224468  0.04818760  0.26584426     0.03700
C1074       C  0.61577334  0.03244134  0.24645152    -0.25200
H1075       H  0.62701794  0.94826336  0.21270547     0.08700
H1076       H  0.63581767  0.99609015  0.21137698     0.12300
H1077       H  0.58915563  0.95702792  0.29022821     0.12300
H1078       H  0.59212194  0.99997205  0.31342171     0.12000
H1079       H  0.58885282  0.04780772  0.30765152     0.12600
H1080       H  0.62258860  0.04120550  0.22780364     0.14500
C1081       C  0.55732754  0.07223716  0.26218387    -0.05500
C1082       C  0.54535745  0.04646082  0.26318850    -0.05400
C1083       C  0.51773278  0.04328615  0.26347939    -0.23600
C1084       C  0.50079597  0.06542405  0.26048206     0.18600
C1085       C  0.51180368  0.09126607  0.25763703     0.15800
C1086       C  0.53988564  0.09465425  0.25922272    -0.18600
C1087       C  0.49456933  0.11294005  0.25207414    -0.20500
C1088       C  0.46690295  0.10882223  0.24922905    -0.13000
C1089       C  0.45540735  0.08317676  0.25343272     0.03700
C1090       C  0.47304279  0.06158950  0.25893592    -0.25200
H1091       H  0.55686150  0.02803724  0.26245135     0.08700
H1092       H  0.50964202  0.02318377  0.26463757     0.12300
H1093       H  0.54834130  0.11451119  0.25696647     0.12300
H1094       H  0.50251295  0.13293268  0.24927528     0.12000
H1095       H  0.45411069  0.12587127  0.24435531     0.12600
H1096       H  0.46572034  0.04136147  0.26113180     0.14500
C1097       C  0.59286640  0.90920091  0.21959951    -0.05500
C1098       C  0.58464295  0.92449686  0.19695652    -0.05400
C1099       C  0.58417836  0.91381283  0.17125356    -0.23600
C1100       C  0.58996474  0.88673889  0.16719158     0.18600
C1101       C  0.59744293  0.87040605  0.18929553     0.15800
C1102       C  0.59956294  0.88183707  0.21534948    -0.18600
C1103       C  0.60125815  0.84274818  0.18496534    -0.20500
C1104       C  0.59691741  0.83156082  0.15940382    -0.13000
C1105       C  0.58942400  0.84787046  0.13743974     0.03700
C1106       C  0.58666265  0.87557915  0.14150988    -0.25200
H1107       H  0.57788700  0.94509509  0.19931549     0.08700
H1108       H  0.57785942  0.92652259  0.15469254     0.12300
H1109       H  0.60459092  0.86912128  0.23229604     0.12300
H1110       H  0.60668007  0.82963313  0.20150454     0.12000
H1111       H  0.59890829  0.81003997  0.15692696     0.12600
H1112       H  0.58036464  0.88833395  0.12496078     0.14500
C1113       C  0.39657850  0.86049355  0.13531630    -0.05500
C1114       C  0.38489983  0.88631641  0.13560635    -0.05400
C1115       C  0.38240209  0.90076436  0.15975949    -0.23600
C1116       C  0.39201201  0.88987349  0.18406474     0.18600
C1117       C  0.40151907  0.86317549  0.18445043     0.15800
C1118       C  0.40362117  0.84857524  0.16020307    -0.18600
C1119       C  0.40918364  0.85190847  0.20916222    -0.20500
C1120       C  0.41148141  0.86816961  0.23208600    -0.13000
C1121       C  0.40872425  0.89638178  0.23034656     0.03700
C1122       C  0.39405370  0.90574513  0.20751807    -0.25200
H1123       H  0.37882881  0.89584294  0.11698938     0.08700
H1124       H  0.37444205  0.92107834  0.15913481     0.12300
H1125       H  0.41210203  0.82844728  0.16058493     0.12300
H1126       H  0.41427572  0.83075808  0.21061561     0.12000
H1127       H  0.41644622  0.85866996  0.25092877     0.12600
H1128       H  0.38556447  0.92574291  0.20691150     0.14500
C1129       C  0.36404842  0.64403462  0.90402762    -0.05500
C1130       C  0.34200421  0.66172155  0.90049614    -0.05400
C1131       C  0.31547173  0.65236917  0.90133903    -0.23600
C1132       C  0.31030749  0.62507828  0.90566488     0.18600
C1133       C  0.33233048  0.60700242  0.90779992     0.15800
C1134       C  0.35897268  0.61650199  0.90689110    -0.18600
C1135       C  0.32741441  0.57990225  0.91248215    -0.20500
C1136       C  0.30128049  0.57094305  0.91692779    -0.13000
C1137       C  0.27867368  0.58866753  0.91627316     0.03700
C1138       C  0.28371328  0.61583032  0.90952790    -0.25200
H1139       H  0.34520706  0.68308959  0.89856409     0.08700
H1140       H  0.29896231  0.66670448  0.89967415     0.12300
H1141       H  0.37571023  0.60263378  0.90990078     0.12300
H1142       H  0.34403107  0.56566894  0.91410838     0.12000
H1143       H  0.29944041  0.55007557  0.92230865     0.12600
H1144       H  0.26714260  0.63018802  0.90954207     0.14500
C1145       C  0.34882490  0.65303618  0.09590731    -0.05500
C1146       C  0.32464567  0.66719358  0.09088221    -0.05400
C1147       C  0.29968602  0.65460593  0.09303808    -0.23600
C1148       C  0.29826543  0.62744540  0.10011023     0.18600
C1149       C  0.32213539  0.61348829  0.10718415     0.15800
C1150       C  0.34731603  0.62638869  0.10526336    -0.18600
C1151       C  0.32041119  0.58649450  0.11481600    -0.20500
C1152       C  0.29606341  0.57272859  0.11232189    -0.13000
C1153       C  0.27299213  0.58531590  0.10106373     0.03700
C1154       C  0.27372083  0.61356234  0.09823092    -0.25200
H1155       H  0.32505057  0.68779648  0.08394684     0.08700
H1156       H  0.28160430  0.66577283  0.08779433     0.12300
H1157       H  0.36569465  0.61523350  0.10942145     0.12300
H1158       H  0.33815136  0.57567509  0.12167507     0.12000
H1159       H  0.29593577  0.55192334  0.11838947     0.12600
H1160       H  0.25582163  0.62417454  0.09141881     0.14500
C1161       C  0.26841732  0.40229315  0.92041946    -0.05500
C1162       C  0.28962502  0.41790555  0.90941141    -0.05400
C1163       C  0.31514522  0.40712559  0.90407044    -0.23600
C1164       C  0.32098508  0.38029226  0.90963228     0.18600
C1165       C  0.29990763  0.36348374  0.91829202     0.15800
C1166       C  0.27372065  0.37433056  0.92293384    -0.18600
C1167       C  0.30587668  0.33644589  0.92369232    -0.20500
C1168       C  0.33245916  0.32672159  0.92201123    -0.13000
C1169       C  0.35394345  0.34370252  0.91495521     0.03700
C1170       C  0.34779062  0.37041700  0.90795069    -0.25200
H1171       H  0.28775780  0.43909042  0.90590912     0.08700
H1172       H  0.33081352  0.42031830  0.89683016     0.12300
H1173       H  0.25815004  0.36143055  0.93085714     0.12300
H1174       H  0.29015109  0.32299824  0.93025221     0.12000
H1175       H  0.33635095  0.30601346  0.92751404     0.12600
H1176       H  0.36395920  0.38383908  0.90246461     0.14500
C1177       C  0.35614524  0.33825873  0.10213225    -0.05500
C1178       C  0.33515732  0.32070715  0.09540799    -0.05400
C1179       C  0.30820208  0.32881981  0.09745759    -0.23600
C1180       C  0.30151725  0.35461317  0.10664625     0.18600
C1181       C  0.32217864  0.37175919  0.11549300     0.15800
C1182       C  0.34947553  0.36359142  0.11298555    -0.18600
C1183       C  0.31509738  0.39729648  0.12530937    -0.20500
C1184       C  0.28855394  0.40707102  0.12291619    -0.13000
C1185       C  0.26871917  0.39172665  0.10988969     0.03700
C1186       C  0.27484382  0.36433920  0.10489398    -0.25200
H1187       H  0.33963322  0.30111837  0.08700602     0.08700
H1188       H  0.29263189  0.31531633  0.09067431     0.12300
H1189       H  0.36541982  0.37723114  0.11847212     0.12300
H1190       H  0.33039811  0.41036458  0.13338182     0.12000
H1191       H  0.28434310  0.42734981  0.12942269     0.12600
H1192       H  0.25962293  0.35173469  0.09589624     0.14500
C1193       C  0.41929836  0.08954243  0.22038021    -0.05500
C1194       C  0.43649932  0.07936752  0.19989576    -0.05400
C1195       C  0.43549076  0.08863568  0.17366397    -0.23600
C1196       C  0.41782380  0.10925878  0.16658453     0.18600
C1197       C  0.40075126  0.12078023  0.18626837     0.15800
C1198       C  0.40137689  0.11075383  0.21310492    -0.18600
C1199       C  0.38416233  0.14262230  0.17867177    -0.20500
C1200       C  0.38506500  0.15298988  0.15226930    -0.13000
C1201       C  0.40191902  0.14116596  0.13270558     0.03700
C1202       C  0.41793071  0.11907851  0.14016231    -0.25200
H1203       H  0.45150187  0.06409551  0.20439829     0.08700
H1204       H  0.44917908  0.07999474  0.15897168     0.12300
H1205       H  0.38864450  0.12002942  0.22818491     0.12300
H1206       H  0.37101489  0.15213085  0.19329819     0.12000
H1207       H  0.37288890  0.17041723  0.14724026     0.12600
H1208       H  0.43169137  0.11026635  0.12561545     0.14500
C1209       C  0.59139463  0.14348879  0.14490514    -0.05500
C1210       C  0.60215930  0.15938178  0.16556219    -0.05400
C1211       C  0.60605879  0.14890607  0.19145502    -0.23600
C1212       C  0.59893220  0.12234834  0.19744059     0.18600
C1213       C  0.58864729  0.10604879  0.17672751     0.15800
C1214       C  0.58514229  0.11658554  0.15062248    -0.18600
C1215       C  0.58092433  0.07979506  0.18268963    -0.20500
C1216       C  0.58252108  0.07002146  0.20894428    -0.13000
C1217       C  0.59232957  0.08588262  0.23031410     0.03700
C1218       C  0.60077263  0.11227097  0.22395888    -0.25200
H1219       H  0.60703916  0.18019832  0.16183546     0.08700
H1220       H  0.61398032  0.16182849  0.20697561     0.12300
H1221       H  0.57644950  0.10418569  0.13507742     0.12300
H1222       H  0.57273811  0.06702909  0.16717991     0.12000
H1223       H  0.57491779  0.05009397  0.21282757     0.12600
H1224       H  0.60725135  0.12570943  0.23964718     0.14500
C1225       C  0.90840571  0.77906740  0.40451521    -0.05500
C1226       C  0.92322475  0.79976701  0.39174162    -0.05400
C1227       C  0.91253070  0.82576425  0.38871657    -0.23600
C1228       C  0.88621683  0.83161076  0.39701526     0.18600
C1229       C  0.86953339  0.81008487  0.40456232     0.15800
C1230       C  0.88034539  0.78380232  0.40670662    -0.18600
C1231       C  0.84271458  0.81541063  0.41154338    -0.20500
C1232       C  0.83322655  0.84187464  0.41316947    -0.13000
C1233       C  0.85017878  0.86380072  0.40778658     0.03700
C1234       C  0.87653247  0.85843457  0.39859820    -0.25200
H1235       H  0.94361256  0.79677071  0.38486893     0.08700
H1236       H  0.92525748  0.84148547  0.38094475     0.12300
H1237       H  0.86714612  0.76750871  0.41146322     0.12300
H1238       H  0.82944297  0.79922785  0.41712206     0.12000
H1239       H  0.81274812  0.84515490  0.42002513     0.12600
H1240       H  0.88976119  0.87495293  0.39393294     0.14500
C1241       C  0.90886177  0.72675565  0.40963417    -0.05500
C1242       C  0.91049613  0.70428151  0.42716145    -0.05400
C1243       C  0.90693584  0.67806819  0.41804613    -0.23600
C1244       C  0.90202220  0.67298322  0.39094686     0.18600
C1245       C  0.89847650  0.69487906  0.37317059     0.15800
C1246       C  0.90153440  0.72157719  0.38259712    -0.18600
C1247       C  0.89381351  0.68952954  0.34589968    -0.20500
C1248       C  0.89415614  0.66303531  0.33624486    -0.13000
C1249       C  0.89909735  0.64114004  0.35356870     0.03700
C1250       C  0.90224464  0.64635878  0.38114600    -0.25200
H1251       H  0.91648459  0.70638140  0.44788397     0.08700
H1252       H  0.90961057  0.66159391  0.43206065     0.12300
H1253       H  0.90075809  0.73803047  0.36837499     0.12300
H1254       H  0.89097581  0.70588948  0.33180129     0.12000
H1255       H  0.89177482  0.65978635  0.31488602     0.12600
H1256       H  0.90629160  0.62982960  0.39478687     0.14500
C1257       C  0.92077321  0.78743856  0.58746888    -0.05500
C1258       C  0.93386824  0.80971171  0.57553834    -0.05400
C1259       C  0.92314621  0.83551794  0.57636525    -0.23600
C1260       C  0.89881104  0.84055676  0.58935960     0.18600
C1261       C  0.88541680  0.81929477  0.60250272     0.15800
C1262       C  0.89632942  0.79267309  0.60137094    -0.18600
C1263       C  0.86099881  0.82519764  0.61574344    -0.20500
C1264       C  0.84943986  0.85118115  0.61446426    -0.13000
C1265       C  0.86213489  0.87196139  0.60013722     0.03700
C1266       C  0.88731649  0.86648879  0.58841310    -0.25200
H1267       H  0.95276873  0.80694827  0.56498651     0.08700
H1268       H  0.93382488  0.85156178  0.56633186     0.12300
H1269       H  0.88560632  0.77632674  0.61074149     0.12300
H1270       H  0.85035667  0.80951951  0.62633545     0.12000
H1271       H  0.83002580  0.85472668  0.62377598     0.12600
H1272       H  0.89744230  0.88215306  0.57724265     0.14500
C1273       C  0.91906012  0.73346480  0.59266754    -0.05500
C1274       C  0.91497627  0.71131362  0.57504370    -0.05400
C1275       C  0.91177301  0.68512311  0.58454154    -0.23600
C1276       C  0.91190106  0.67972888  0.61202135     0.18600
C1277       C  0.91262044  0.70152282  0.63015814     0.15800
C1278       C  0.91594084  0.72816141  0.62047726    -0.18600
C1279       C  0.91185038  0.69602697  0.65777140    -0.20500
C1280       C  0.91221794  0.66944828  0.66720270    -0.13000
C1281       C  0.91364639  0.64751080  0.64936854     0.03700
C1282       C  0.91265169  0.65291423  0.62160560    -0.25200
H1283       H  0.91678418  0.71303081  0.55354934     0.08700
H1284       H  0.91067655  0.66881923  0.57018685     0.12300
H1285       H  0.91890099  0.74431958  0.63469237     0.12300
H1286       H  0.91199693  0.71230426  0.67218205     0.12000
H1287       H  0.91273780  0.66612007  0.68868119     0.12600
H1288       H  0.91358233  0.63637628  0.60748132     0.14500
C1289       C  0.91998889  0.75643648  0.44966954    -0.05500
C1290       C  0.89484234  0.76063811  0.46280618    -0.05400
C1291       C  0.89299674  0.76252457  0.49087959    -0.23600
C1292       C  0.91587192  0.75971364  0.50696979     0.18600
C1293       C  0.94082153  0.75452732  0.49467613     0.15800
C1294       C  0.94242749  0.75158244  0.46677808    -0.18600
C1295       C  0.96401693  0.75241338  0.51041305    -0.20500
C1296       C  0.96254296  0.75508946  0.53821612    -0.13000
C1297       C  0.93743762  0.75800692  0.55146895     0.03700
C1298       C  0.91420175  0.76106126  0.53512450    -0.25200
H1299       H  0.87657540  0.76140261  0.45244681     0.08700
H1300       H  0.87332212  0.76584583  0.49997219     0.12300
H1301       H  0.96147191  0.74434361  0.45896251     0.12300
H1302       H  0.98359376  0.74930864  0.50111534     0.12000
H1303       H  0.98143580  0.75504576  0.54872305     0.12600
H1304       H  0.89468375  0.76413925  0.54455362     0.14500
C1305       C  0.14466162  0.87042773  0.40976455    -0.05500
C1306       C  0.11797018  0.87237786  0.40057836    -0.05400
C1307       C  0.10213763  0.84936591  0.39774950    -0.23600
C1308       C  0.11256883  0.82382761  0.40428906     0.18600
C1309       C  0.13972087  0.82134402  0.41215113     0.15800
C1310       C  0.15564825  0.84458532  0.41476403    -0.18600
C1311       C  0.15015360  0.79569786  0.41808064    -0.20500
C1312       C  0.13318379  0.77330142  0.41900931    -0.13000
C1313       C  0.10513285  0.77601220  0.41498740     0.03700
C1314       C  0.09586285  0.80104309  0.40451239    -0.25200
H1315       H  0.10893504  0.89186050  0.39658713     0.08700
H1316       H  0.08136325  0.85169113  0.39154599     0.12300
H1317       H  0.17620950  0.84262888  0.42175093     0.12300
H1318       H  0.17115887  0.79314535  0.42334227     0.12000
H1319       H  0.14160010  0.75422897  0.42550241     0.12600
H1320       H  0.07537211  0.80363588  0.39780118     0.14500
C1321       C  0.09478706  0.72605180  0.40995187    -0.05500
C1322       C  0.10366770  0.70327941  0.42475478    -0.05400
C1323       C  0.10587562  0.67785588  0.41293811    -0.23600
C1324       C  0.09989645  0.67419903  0.38575801     0.18600
C1325       C  0.09445579  0.69703309  0.36971458     0.15800
C1326       C  0.09292284  0.72289008  0.38167422    -0.18600
C1327       C  0.08905528  0.69333207  0.34230224    -0.20500
C1328       C  0.08745874  0.66738630  0.33140524    -0.13000
C1329       C  0.09108839  0.64436550  0.34756475     0.03700
C1330       C  0.09820410  0.64806623  0.37468827    -0.25200
H1331       H  0.10808942  0.70449403  0.44594608     0.08700
H1332       H  0.11124716  0.66081429  0.42542621     0.12300
H1333       H  0.08748648  0.74010930  0.36944839     0.12300
H1334       H  0.08497637  0.71046367  0.32947743     0.12000
H1335       H  0.08200617  0.66534932  0.31045320     0.12600
H1336       H  0.10127203  0.63066890  0.38743752     0.14500
C1337       C  0.05557570  0.76014250  0.41820981    -0.05500
C1338       C  0.04371067  0.78266568  0.43120187    -0.05400
C1339       C  0.01598362  0.78762288  0.43038991    -0.23600
C1340       C  0.99882345  0.76958900  0.41762917     0.18600
C1341       C  0.00987030  0.74694560  0.40469540     0.15800
C1342       C  0.03785586  0.74249099  0.40477090    -0.18600
C1343       C  0.99264206  0.72811786  0.39324249    -0.20500
C1344       C  0.96476978  0.73068503  0.39606626    -0.13000
C1345       C  0.95296167  0.75258051  0.41012329     0.03700
C1346       C  0.97073643  0.77277700  0.41936179    -0.25200
H1347       H  0.05603459  0.79604658  0.44296081     0.08700
H1348       H  0.00784231  0.80491640  0.44097740     0.12300
H1349       H  0.04498195  0.72382051  0.39626407     0.12300
H1350       H  0.00077822  0.71058671  0.38304536     0.12000
H1351       H  0.95302652  0.71462634  0.38784288     0.12600
H1352       H  0.96256420  0.78987772  0.43026175     0.14500
C1353       C  0.10350365  0.77908641  0.59981847    -0.05500
C1354       C  0.12753922  0.78174838  0.61486818    -0.05400
C1355       C  0.13991286  0.80675796  0.61814510    -0.23600
C1356       C  0.12873917  0.83005238  0.60667047     0.18600
C1357       C  0.10402874  0.82822320  0.59288777     0.15800
C1358       C  0.09186505  0.80302149  0.58932716    -0.18600
C1359       C  0.09252085  0.85147891  0.58165618    -0.20500
C1360       C  0.10594379  0.87603424  0.58292988    -0.13000
C1361       C  0.13137726  0.87795361  0.59515813     0.03700
C1362       C  0.14241955  0.85484280  0.60756866    -0.25200
H1363       H  0.13811541  0.76441411  0.62273271     0.08700
H1364       H  0.15886737  0.80767601  0.62884384     0.12300
H1365       H  0.07400754  0.80173859  0.57691370     0.12300
H1366       H  0.07347868  0.85052907  0.57111738     0.12000
H1367       H  0.09699051  0.89329757  0.57301757     0.12600
H1368       H  0.16205642  0.85588814  0.61696041     0.14500
C1369       C  0.10862708  0.72717053  0.60291180    -0.05500
C1370       C  0.11981227  0.70590327  0.58757498    -0.05400
C1371       C  0.12334794  0.68020339  0.59876891    -0.23600
C1372       C  0.11615132  0.67517139  0.62556597     0.18600
C1373       C  0.10845195  0.69704128  0.64198622     0.15800
C1374       C  0.10537412  0.72281732  0.63080181    -0.18600
C1375       C  0.10158492  0.69245111  0.66884324    -0.20500
C1376       C  0.10019801  0.66630338  0.67877722    -0.13000
C1377       C  0.10551898  0.64400489  0.66215381     0.03700
C1378       C  0.11469321  0.64864006  0.63573828    -0.25200
H1379       H  0.12343087  0.70812702  0.56628406     0.08700
H1380       H  0.12998853  0.66389628  0.58593982     0.12300
H1381       H  0.09712704  0.73883927  0.64311340     0.12300
H1382       H  0.09588472  0.70899149  0.68181800     0.12000
H1383       H  0.09337571  0.66354329  0.69926376     0.12600
H1384       H  0.11900745  0.63175038  0.62270179     0.14500
C1385       C  0.96225868  0.75827714  0.59710370    -0.05500
C1386       C  0.97249310  0.77988899  0.61242419    -0.05400
C1387       C  0.99999193  0.78161338  0.61803982    -0.23600
C1388       C  0.01763187  0.76127701  0.60958923     0.18600
C1389       C  0.00685002  0.73721261  0.59957607     0.15800
C1390       C  0.97916697  0.73546092  0.59428086    -0.18600
C1391       C  0.02422256  0.71610582  0.59294528    -0.20500
C1392       C  0.05191264  0.72022546  0.59248100    -0.13000
C1393       C  0.06301025  0.74596010  0.59732408     0.03700
C1394       C  0.04567675  0.76524332  0.60927858    -0.25200
H1395       H  0.95989092  0.79647736  0.61879493     0.08700
H1396       H  0.00760711  0.79961605  0.62745032     0.12300
H1397       H  0.97154294  0.71760702  0.58460546     0.12300
H1398       H  0.01640757  0.69698810  0.58631475     0.12000
H1399       H  0.06446229  0.70383134  0.58539550     0.12600
H1400       H  0.05330917  0.78395131  0.61692246     0.14500
C1401       C  0.08619286  0.74916623  0.45548568    -0.05500
C1402       C  0.06659255  0.73221363  0.46711291    -0.05400
C1403       C  0.06334346  0.73019196  0.49481343    -0.23600
C1404       C  0.08104110  0.74321103  0.51214977     0.18600
C1405       C  0.10235875  0.75810910  0.50144473     0.15800
C1406       C  0.10399839  0.76233140  0.47344585    -0.18600
C1407       C  0.12181350  0.76827525  0.51898843    -0.20500
C1408       C  0.11980137  0.76385817  0.54675085    -0.13000
C1409       C  0.09683923  0.75163588  0.55831688     0.03700
C1410       C  0.07757649  0.74134939  0.54004888    -0.25200
H1411       H  0.05289646  0.72107241  0.45453336     0.08700
H1412       H  0.04722432  0.71798798  0.50265374     0.12300
H1413       H  0.11915482  0.77581023  0.46642876     0.12300
H1414       H  0.13890835  0.77912773  0.51123492     0.12000
H1415       H  0.13583606  0.77129640  0.55932333     0.12600
H1416       H  0.05959390  0.73172513  0.54654915     0.14500
C1417       C  0.77473530  0.40324791  0.89879597    -0.05500
C1418       C  0.77225470  0.40308626  0.87046222    -0.05400
C1419       C  0.79476846  0.39996684  0.85372814    -0.23600
C1420       C  0.82059052  0.39696088  0.86470279     0.18600
C1421       C  0.82328649  0.39380453  0.89274838     0.15800
C1422       C  0.80023275  0.39570966  0.90952506    -0.18600
C1423       C  0.84927037  0.39087982  0.90367116    -0.20500
C1424       C  0.87223716  0.39315674  0.88730442    -0.13000
C1425       C  0.86982841  0.39797279  0.85955825     0.03700
C1426       C  0.84375909  0.39871642  0.84827773    -0.25200
H1427       H  0.75320769  0.40826686  0.86115157     0.08700
H1428       H  0.79216278  0.40193154  0.83222191     0.12300
H1429       H  0.80294310  0.39346020  0.93089635     0.12300
H1430       H  0.85189463  0.38829635  0.92510736     0.12000
H1431       H  0.89193263  0.39239398  0.89661195     0.12600
H1432       H  0.84143381  0.40235804  0.82694639     0.14500
C1433       C  0.72440525  0.40486265  0.90700926    -0.05500
C1434       C  0.70300635  0.41968645  0.89514445    -0.05400
C1435       C  0.67678214  0.40943288  0.89398823    -0.23600
C1436       C  0.67118987  0.38362418  0.90361362     0.18600
C1437       C  0.69293699  0.36717159  0.91206475     0.15800
C1438       C  0.71939790  0.37747836  0.91273388    -0.18600
C1439       C  0.68766359  0.34111389  0.92109760    -0.20500
C1440       C  0.66118931  0.33180962  0.92270614    -0.13000
C1441       C  0.63903898  0.34821802  0.91545104     0.03700
C1442       C  0.64433019  0.37416463  0.90542060    -0.25200
H1443       H  0.70596543  0.43965963  0.88735682     0.08700
H1444       H  0.66070620  0.42205636  0.88619863     0.12300
H1445       H  0.73566050  0.36505933  0.92051060     0.12300
H1446       H  0.70399060  0.32810407  0.92766329     0.12000
H1447       H  0.65802636  0.31179852  0.93054319     0.12600
H1448       H  0.62766698  0.38712919  0.89965861     0.14500
C1449       C  0.76731008  0.60463679  0.10077089    -0.05500
C1450       C  0.78864907  0.61358744  0.08421928    -0.05400
C1451       C  0.81467978  0.61639718  0.09442416    -0.23600
C1452       C  0.81993480  0.61119523  0.12151311     0.18600
C1453       C  0.79807800  0.60696840  0.13917976     0.15800
C1454       C  0.77171577  0.60497369  0.12886755    -0.18600
C1455       C  0.80326990  0.60207466  0.16640033    -0.20500
C1456       C  0.82978603  0.59904517  0.17546119    -0.13000
C1457       C  0.85171006  0.60099667  0.15757207     0.03700
C1458       C  0.84664083  0.60839403  0.13080694    -0.25200
H1459       H  0.78610619  0.61685321  0.06295493     0.08700
H1460       H  0.83096635  0.62101683  0.08074441     0.12300
H1461       H  0.75540791  0.59959236  0.14224796     0.12300
H1462       H  0.78685132  0.59898011  0.18037119     0.12000
H1463       H  0.83303505  0.59366326  0.19629950     0.12600
H1464       H  0.86329139  0.61019941  0.11686531     0.14500
C1465       C  0.71595614  0.60596096  0.10167478    -0.05500
C1466       C  0.71571989  0.63436193  0.10396480    -0.05400
C1467       C  0.69156050  0.64905104  0.10625531    -0.23600
C1468       C  0.66669151  0.63598105  0.10581946     0.18600
C1469       C  0.66639158  0.60768686  0.10571507     0.15800
C1470       C  0.69083926  0.59297279  0.10482057    -0.18600
C1471       C  0.64155443  0.59446623  0.10464350    -0.20500
C1472       C  0.61742825  0.60907011  0.10202131    -0.13000
C1473       C  0.61742824  0.63725374  0.10110091     0.03700
C1474       C  0.64221694  0.65063536  0.10395976    -0.25200
H1475       H  0.73412458  0.64557423  0.10159861     0.08700
H1476       H  0.69232033  0.67076722  0.10652590     0.12300
H1477       H  0.68962691  0.57145472  0.10504518     0.12300
H1478       H  0.64086145  0.57275143  0.10445908     0.12000
H1479       H  0.59878316  0.59821589  0.09971614     0.12600
H1480       H  0.64266024  0.67235156  0.10295826     0.14500
C1481       C  0.76483392  0.41641868  0.09392859    -0.05500
C1482       C  0.78527567  0.40145528  0.08057835    -0.05400
C1483       C  0.81060712  0.39695000  0.09230439    -0.23600
C1484       C  0.81610248  0.40605676  0.11829338     0.18600
C1485       C  0.79487109  0.41767680  0.13337236     0.15800
C1486       C  0.76931306  0.42201976  0.12145798    -0.18600
C1487       C  0.79991232  0.42589499  0.15975851    -0.20500
C1488       C  0.82587101  0.42391091  0.17057307    -0.13000
C1489       C  0.84771849  0.41385269  0.15534143     0.03700
C1490       C  0.84245509  0.40427729  0.12924248    -0.25200
H1491       H  0.78229061  0.39341962  0.06071617     0.08700
H1492       H  0.82610546  0.38675128  0.08074436     0.12300
H1493       H  0.75352754  0.43189446  0.13294291     0.12300
H1494       H  0.78393832  0.43469390  0.17181355     0.12000
H1495       H  0.82903141  0.43144139  0.19070338     0.12600
H1496       H  0.85888845  0.39638021  0.11718707     0.14500
C1497       C  0.71395662  0.41334418  0.09385887    -0.05500
C1498       C  0.69183700  0.42814111  0.10446476    -0.05400
C1499       C  0.66681850  0.41602273  0.10883845    -0.23600
C1500       C  0.66348683  0.38853039  0.10413988     0.18600
C1501       C  0.68645303  0.37274312  0.09790626     0.15800
C1502       C  0.71160690  0.38505583  0.09363901    -0.18600
C1503       C  0.68350715  0.34511546  0.09394981    -0.20500
C1504       C  0.65793148  0.33360789  0.09408472    -0.13000
C1505       C  0.63454816  0.34930854  0.09827444     0.03700
C1506       C  0.63759698  0.37675986  0.10439035    -0.25200
H1507       H  0.69301348  0.44945059  0.10811647     0.08700
H1508       H  0.64982362  0.42840629  0.11486832     0.12300
H1509       H  0.72853909  0.37294992  0.08689873     0.12300
H1510       H  0.70085539  0.33257320  0.08944588     0.12000
H1511       H  0.65639545  0.31240326  0.08960903     0.12600
H1512       H  0.61989385  0.38918631  0.10772762     0.14500
C1513       C  0.73576296  0.45812178  0.07998197    -0.05500
C1514       C  0.71395206  0.47060781  0.06626306    -0.05400
C1515       C  0.70993458  0.49844041  0.06667196    -0.23600
C1516       C  0.72761395  0.51495337  0.08075168     0.18600
C1517       C  0.74985083  0.50319758  0.09388867     0.15800
C1518       C  0.75433718  0.47529250  0.09270474    -0.18600
C1519       C  0.76775115  0.51959207  0.10760301    -0.20500
C1520       C  0.76417024  0.54737325  0.10783532    -0.13000
C1521       C  0.74221519  0.56024855  0.09449977     0.03700
C1522       C  0.72401637  0.54306404  0.08096514    -0.25200
H1523       H  0.69948944  0.45857020  0.05552757     0.08700
H1524       H  0.69285105  0.50700444  0.05606678     0.12300
H1525       H  0.77262935  0.46756232  0.10153872     0.12300
H1526       H  0.78516613  0.51096526  0.11765784     0.12000
H1527       H  0.78015161  0.55806732  0.11731834     0.12600
H1528       H  0.70795308  0.55171269  0.06893254     0.14500
C1529       C  0.73853021  0.41969512  0.04878057    -0.05500
C1530       C  0.71630323  0.40720286  0.03625299    -0.05400
C1531       C  0.71560271  0.40279882  0.00866380    -0.23600
C1532       C  0.73679319  0.41100974  0.99222824     0.18600
C1533       C  0.75905092  0.42385081  0.00372108     0.15800
C1534       C  0.75948631  0.42878688  0.03165761    -0.18600
C1535       C  0.77992334  0.43237691  0.98686329    -0.20500
C1536       C  0.77825505  0.42888985  0.95893351    -0.13000
C1537       C  0.75581185  0.41642575  0.94671130     0.03700
C1538       C  0.73510016  0.40776039  0.96429162    -0.25200
H1539       H  0.69839291  0.40181779  0.04714462     0.08700
H1540       H  0.69797711  0.39344815  0.00006581     0.12300
H1541       H  0.77615052  0.43975994  0.04020520     0.12300
H1542       H  0.79723230  0.44249309  0.99517622     0.12000
H1543       H  0.79410599  0.43723127  0.94665165     0.12600
H1544       H  0.71638778  0.40006303  0.95678799     0.14500
C1545       C  0.77946192  0.58910352  0.91284202    -0.05500
C1546       C  0.80195003  0.59701032  0.92835413    -0.05400
C1547       C  0.82741468  0.59992020  0.91677461    -0.23600
C1548       C  0.83106242  0.59624300  0.88918145     0.18600
C1549       C  0.80829258  0.59185499  0.87282776     0.15800
C1550       C  0.78266935  0.58893017  0.88462351    -0.18600
C1551       C  0.81177357  0.58895130  0.84507390    -0.20500
C1552       C  0.83764782  0.58843749  0.83394855    -0.13000
C1553       C  0.86066090  0.59089788  0.85026699     0.03700
C1554       C  0.85712638  0.59587497  0.87784054    -0.25200
H1555       H  0.80047185  0.60049125  0.94968540     0.08700
H1556       H  0.84440316  0.60441374  0.92957707     0.12300
H1557       H  0.76552858  0.58433738  0.87204410     0.12300
H1558       H  0.79458251  0.58588872  0.83209795     0.12000
H1559       H  0.83967169  0.58480556  0.81259805     0.12600
H1560       H  0.87460229  0.59792125  0.89065927     0.14500
C1561       C  0.73029983  0.60047451  0.91482154    -0.05500
C1562       C  0.73282828  0.62813251  0.92046391    -0.05400
C1563       C  0.71069080  0.64560104  0.91819335    -0.23600
C1564       C  0.68578628  0.63600977  0.90931465     0.18600
C1565       C  0.68417404  0.60957422  0.89937996     0.15800
C1566       C  0.70671300  0.59228266  0.90122760    -0.18600
C1567       C  0.65940985  0.60019470  0.88974731    -0.20500
C1568       C  0.63594401  0.61583442  0.89253604    -0.13000
C1569       C  0.63688372  0.64122541  0.90469436     0.03700
C1570       C  0.66219915  0.65175941  0.91172412    -0.25200
H1571       H  0.75113523  0.63560344  0.92945769     0.08700
H1572       H  0.71260667  0.66611164  0.92504662     0.12300
H1573       H  0.70485229  0.57203572  0.89379676     0.12300
H1574       H  0.65786487  0.58012923  0.88160042     0.12000
H1575       H  0.61684073  0.60741958  0.88657644     0.12600
H1576       H  0.66334439  0.67152230  0.92068804     0.14500
C1577       C  0.75348771  0.58091409  0.95684909    -0.05500
C1578       C  0.77188537  0.56357709  0.97022558    -0.05400
C1579       C  0.77368411  0.56299979  0.99820891    -0.23600
C1580       C  0.75674131  0.57932286  0.01378493     0.18600
C1581       C  0.73738478  0.59570976  0.00104160     0.15800
C1582       C  0.73544605  0.59600000  0.97300103    -0.18600
C1583       C  0.71984532  0.61140107  0.01651052    -0.20500
C1584       C  0.72113082  0.61066422  0.04442766    -0.13000
C1585       C  0.74042753  0.59447806  0.05796469     0.03700
C1586       C  0.75840756  0.57904927  0.04189315    -0.25200
H1587       H  0.78525620  0.55063298  0.95877732     0.08700
H1588       H  0.78829911  0.54974695  0.00763426     0.12300
H1589       H  0.71918404  0.60754058  0.96430989     0.12300
H1590       H  0.70477992  0.62408701  0.00699838     0.12000
H1591       H  0.70642689  0.62277793  0.05486659     0.12600
H1592       H  0.77346134  0.56636522  0.05143114     0.14500
C1593       C  0.74520182  0.55068509  0.91925387    -0.05500
C1594       C  0.72186643  0.53933065  0.93090827    -0.05400
C1595       C  0.71756600  0.51163876  0.93071727    -0.23600
C1596       C  0.73646327  0.49429975  0.91889825     0.18600
C1597       C  0.75904215  0.50520615  0.90588258     0.15800
C1598       C  0.76338862  0.53297642  0.90623170    -0.18600
C1599       C  0.77796769  0.48807274  0.89403071    -0.20500
C1600       C  0.77511384  0.46036851  0.89567863    -0.13000
C1601       C  0.75300102  0.44853493  0.90922672     0.03700
C1602       C  0.73386900  0.46626769  0.92100249    -0.25200
H1603       H  0.70753575  0.55197049  0.94151219     0.08700
H1604       H  0.69992816  0.50373953  0.94070184     0.12300
H1605       H  0.78209201  0.54003046  0.89789971     0.12300
H1606       H  0.79564161  0.49609553  0.88417984     0.12000
H1607       H  0.79152246  0.44869376  0.88744825     0.12600
H1608       H  0.71732308  0.45813317  0.93255869     0.14500
C1609       C  0.41422173  0.90701567  0.77737135    -0.05500
C1610       C  0.42526341  0.92046291  0.79978853    -0.05400
C1611       C  0.42205357  0.91113868  0.82579752    -0.23600
C1612       C  0.40899676  0.88703027  0.83058087     0.18600
C1613       C  0.39809339  0.87244935  0.80885575     0.15800
C1614       C  0.40028895  0.88275263  0.78223723    -0.18600
C1615       C  0.38638740  0.84738151  0.81432237    -0.20500
C1616       C  0.38688881  0.83658068  0.84055192    -0.13000
C1617       C  0.39836447  0.85099027  0.86198148     0.03700
C1618       C  0.40838217  0.87666009  0.85677420    -0.25200
H1619       H  0.43659681  0.93872261  0.79704282     0.08700
H1620       H  0.43083059  0.92238577  0.84217111     0.12300
H1621       H  0.39237986  0.87137046  0.76556001     0.12300
H1622       H  0.37791582  0.83562524  0.79816846     0.12000
H1623       H  0.37919627  0.81658984  0.84388164     0.12600
H1624       H  0.41760687  0.88791968  0.87290154     0.12100
C1625       C  0.40741597  0.90565596  0.72440112    -0.05500
C1626       C  0.42271062  0.89853071  0.70127605    -0.05400
C1627       C  0.41073911  0.89523200  0.67615646    -0.23600
C1628       C  0.38316867  0.89964697  0.67282819     0.18600
C1629       C  0.36701040  0.90442980  0.69575142     0.15800
C1630       C  0.37906940  0.90670443  0.72139025    -0.18600
C1631       C  0.33934718  0.90907540  0.69229278    -0.20500
C1632       C  0.32836067  0.91116486  0.66645421    -0.13000
C1633       C  0.34468336  0.90850863  0.64340615     0.03700
C1634       C  0.37194202  0.90146276  0.64681737    -0.25200
H1635       H  0.44439883  0.89784073  0.70133868     0.08700
H1636       H  0.42348713  0.89127189  0.65890109     0.12300
H1637       H  0.36670625  0.91226314  0.73848986     0.12300
H1638       H  0.32643245  0.91254341  0.70951611     0.12000
H1639       H  0.30720511  0.91629544  0.66455321     0.12600
H1640       H  0.38478564  0.89925017  0.62932880     0.14500
C1641       C  0.40883166  0.14593943  0.85719984    -0.05500
C1642       C  0.40165864  0.16265592  0.83539937    -0.05400
C1643       C  0.40103617  0.15265561  0.80889420    -0.23600
C1644       C  0.40775706  0.12566761  0.80341361     0.18600
C1645       C  0.41421982  0.10869096  0.82528138     0.15800
C1646       C  0.41454255  0.11876224  0.85180364    -0.18600
C1647       C  0.42161518  0.08206864  0.82029294    -0.20500
C1648       C  0.42375373  0.07247739  0.79406513    -0.13000
C1649       C  0.41773999  0.08867281  0.77140578     0.03700
C1650       C  0.40934335  0.11560157  0.77661763    -0.25200
H1651       H  0.39736030  0.18374712  0.83872688     0.08700
H1652       H  0.39603265  0.16624798  0.79261010     0.12300
H1653       H  0.42041207  0.10559978  0.86817443     0.12300
H1654       H  0.42694036  0.06879252  0.83674557     0.12000
H1655       H  0.43145395  0.05226586  0.79151845     0.12600
H1656       H  0.40562706  0.12919673  0.76003360     0.14500
C1657       C  0.41724997  0.09591135  0.71878245    -0.05500
C1658       C  0.43487329  0.10148997  0.69703842    -0.05400
C1659       C  0.42507375  0.10568509  0.67094021    -0.23600
C1660       C  0.39740535  0.10494650  0.66566535     0.18600
C1661       C  0.37937095  0.10308756  0.68753924     0.15800
C1662       C  0.38931905  0.09905709  0.71385659    -0.18600
C1663       C  0.35162354  0.10305464  0.68246933    -0.20500
C1664       C  0.34191820  0.10306343  0.65608303    -0.13000
C1665       C  0.35963187  0.10264389  0.63398254     0.03700
C1666       C  0.38751965  0.10436246  0.63896054    -0.25200
H1667       H  0.45640227  0.09924634  0.69893105     0.08700
H1668       H  0.43932622  0.10761396  0.65456869     0.12300
H1669       H  0.37523623  0.09497223  0.72996874     0.12300
H1670       H  0.33737824  0.10184173  0.69891752     0.12000
H1671       H  0.32039237  0.10168021  0.65301501     0.12600
H1672       H  0.40148488  0.10411160  0.62220973     0.14500
C1673       C  0.41095594  0.94905654  0.74811537    -0.05500
C1674       C  0.39334602  0.96060028  0.76753482    -0.05400
C1675       C  0.38832423  0.98830721  0.76830374    -0.23600
C1676       C  0.39988675  0.00520682  0.74914401     0.18600
C1677       C  0.41367751  0.99350755  0.72720127     0.15800
C1678       C  0.41840832  0.96561782  0.72638583    -0.18600
C1679       C  0.42425747  0.01008437  0.70734663    -0.20500
C1680       C  0.42491662  0.03773815  0.71126240    -0.13000
C1681       C  0.41522959  0.04971774  0.73534644     0.03700
C1682       C  0.39959687  0.03340812  0.75248990    -0.25200
H1683       H  0.38389961  0.94853054  0.78285399     0.08700
H1684       H  0.37644025  0.99658656  0.78462740     0.12300
H1685       H  0.43005183  0.95709959  0.71000162     0.12300
H1686       H  0.43418293  0.00157538  0.68988618     0.12000
H1687       H  0.43623487  0.04923380  0.69682451     0.12600
H1688       H  0.38944844  0.04195850  0.76973265     0.14500
C1689       C  0.58997368  0.90347759  0.77635983    -0.05500
C1690       C  0.60043422  0.87692816  0.77528381    -0.05400
C1691       C  0.60264596  0.86098602  0.79847767    -0.23600
C1692       C  0.59413817  0.87079079  0.82351470     0.18600
C1693       C  0.58297776  0.89689130  0.82499191     0.15800
C1694       C  0.58010196  0.91246725  0.80153732    -0.18600
C1695       C  0.57459413  0.90700510  0.84992774    -0.20500
C1696       C  0.57642062  0.89113814  0.87305194    -0.13000
C1697       C  0.58629167  0.86461385  0.87181309     0.03700
C1698       C  0.59560806  0.85468028  0.84689853    -0.25200
H1699       H  0.60640197  0.86784480  0.75649667     0.08700
H1700       H  0.61076968  0.84080645  0.79673526     0.12300
H1701       H  0.57061260  0.93209608  0.80293500     0.12300
H1702       H  0.56615292  0.92707447  0.85149185     0.12000
H1703       H  0.56885841  0.89929060  0.89178361     0.12600
H1704       H  0.60306311  0.83421654  0.84552007     0.14500
C1705       C  0.60052071  0.90972856  0.72537257    -0.05500
C1706       C  0.62850065  0.90409207  0.72621109    -0.05400
C1707       C  0.64339476  0.89857549  0.70293955    -0.23600
C1708       C  0.63124675  0.89993241  0.67760928     0.18600
C1709       C  0.60324435  0.90495161  0.67597398     0.15800
C1710       C  0.58793686  0.90910760  0.69975539    -0.18600
C1711       C  0.59140586  0.90754095  0.65044990    -0.20500
C1712       C  0.60729708  0.90677850  0.62706354    -0.13000
C1713       C  0.63538874  0.90289306  0.62846782     0.03700
C1714       C  0.64701781  0.89839137  0.65394326    -0.25200
H1715       H  0.63920893  0.90512631  0.74511115     0.08700
H1716       H  0.66485595  0.89489649  0.70469674     0.12300
H1717       H  0.56680053  0.91419683  0.69788333     0.12300
H1718       H  0.57000155  0.91148822  0.64859851     0.12000
H1719       H  0.59769367  0.91048048  0.60787842     0.12600
H1720       H  0.66863555  0.89567611  0.65553514     0.14500
C1721       C  0.45231309  0.91598271  0.74786181    -0.05500
C1722       C  0.46403208  0.88989681  0.74768819    -0.05400
C1723       C  0.49202683  0.88592563  0.74620300    -0.23600
C1724       C  0.50947510  0.90786934  0.74616092     0.18600
C1725       C  0.49825598  0.93392073  0.74812039     0.15800
C1726       C  0.47014430  0.93786318  0.74892072    -0.18600
C1727       C  0.51532577  0.95577787  0.75042995    -0.20500
C1728       C  0.54311932  0.95208394  0.75134167    -0.13000
C1729       C  0.55547119  0.92640956  0.74798043     0.03700
C1730       C  0.53785905  0.90429576  0.74532747    -0.25200
H1731       H  0.45122235  0.87245124  0.74802834     0.08700
H1732       H  0.50002324  0.86559731  0.74548611     0.12300
H1733       H  0.46255372  0.95811634  0.75152680     0.12300
H1734       H  0.50709907  0.97590259  0.75277785     0.12000
H1735       H  0.55430371  0.96985221  0.75594385     0.12600
H1736       H  0.54632218  0.88418977  0.74383925     0.14500
C1737       C  0.59507656  0.09012036  0.78596965    -0.05500
C1738       C  0.58152165  0.07574093  0.80636279    -0.05400
C1739       C  0.58058609  0.08471902  0.83286850    -0.23600
C1740       C  0.59242905  0.10898631  0.84004982     0.18600
C1741       C  0.60612801  0.12402939  0.82032910     0.15800
C1742       C  0.60757511  0.11449802  0.79350009    -0.18600
C1743       C  0.61706548  0.14891178  0.82765154    -0.20500
C1744       C  0.61372767  0.15897954  0.85385191    -0.13000
C1745       C  0.59968897  0.14428759  0.87347093     0.03700
C1746       C  0.58956802  0.11897761  0.86639415    -0.25200
H1747       H  0.57064515  0.05765681  0.80154564     0.08700
H1748       H  0.56964735  0.07307795  0.84758936     0.12300
H1749       H  0.61702034  0.12690216  0.77842296     0.12300
H1750       H  0.62752083  0.16096010  0.81292114     0.12000
H1751       H  0.62144228  0.17868773  0.85853479     0.12600
H1752       H  0.57826911  0.10757634  0.88104225     0.14500
C1753       C  0.60802068  0.09691298  0.73531069    -0.05500
C1754       C  0.63629176  0.09403836  0.73700462    -0.05400
C1755       C  0.65256665  0.09593279  0.71410082    -0.23600
C1756       C  0.64104501  0.10083500  0.68884673     0.18600
C1757       C  0.61336493  0.10715228  0.68716857     0.15800
C1758       C  0.59718622  0.10586819  0.71039692    -0.18600
C1759       C  0.60177838  0.11197302  0.66184085    -0.20500
C1760       C  0.61687865  0.10815637  0.63832613    -0.13000
C1761       C  0.64387107  0.09960873  0.63969751     0.03700
C1762       C  0.65619455  0.09734289  0.66513494    -0.25200
H1763       H  0.64545705  0.08714811  0.75552828     0.08700
H1764       H  0.67388058  0.09142066  0.71585334     0.12300
H1765       H  0.57570289  0.10810820  0.70773012     0.12300
H1766       H  0.58059621  0.11712884  0.66013298     0.12000
H1767       H  0.60698013  0.11034033  0.61907285     0.12600
H1768       H  0.67710053  0.09102368  0.66652222     0.14500
C1769       C  0.59789517  0.05144358  0.75028929    -0.05500
C1770       C  0.59229102  0.04151415  0.72423686    -0.05400
C1771       C  0.59459155  0.01439227  0.71808915    -0.23600
C1772       C  0.60192736  0.99596948  0.73791134     0.18600
C1773       C  0.60980280  0.00520024  0.76344357     0.15800
C1774       C  0.60884803  0.03301264  0.76920749    -0.18600
C1775       C  0.61704326  0.98619453  0.78306106    -0.20500
C1776       C  0.61296034  0.95868208  0.77854227    -0.13000
C1777       C  0.60075791  0.94971152  0.75452545     0.03700
C1778       C  0.59888220  0.96844280  0.73322674    -0.25200
H1779       H  0.58429732  0.05462545  0.70882902     0.08700
H1780       H  0.58872136  0.00765313  0.69826469     0.12300
H1781       H  0.61530395  0.03974661  0.78877502     0.12300
H1782       H  0.62439706  0.99265399  0.80246884     0.12000
H1783       H  0.61821608  0.94498798  0.79452520     0.12600
H1784       H  0.59093575  0.96212278  0.71401785     0.14500
C1785       C  0.55981252  0.08621392  0.75214763    -0.05500
C1786       C  0.54847907  0.11239418  0.75176151    -0.05400
C1787       C  0.52047164  0.11648779  0.74973248    -0.23600
C1788       C  0.50298266  0.09450087  0.74913017     0.18600
C1789       C  0.51406468  0.06844902  0.75120587     0.15800
C1790       C  0.54181370  0.06451049  0.75281745    -0.18600
C1791       C  0.49730460  0.04633355  0.75242455    -0.20500
C1792       C  0.46975567  0.04961398  0.75023695    -0.13000
C1793       C  0.45768879  0.07514928  0.74554864     0.03700
C1794       C  0.47474121  0.09781087  0.74684651    -0.25200
H1795       H  0.56145408  0.12969685  0.75278390     0.08700
H1796       H  0.51252904  0.13680049  0.74882822     0.12300
H1797       H  0.54903502  0.04415210  0.75565421     0.12300
H1798       H  0.50551451  0.02628796  0.75528743     0.12000
H1799       H  0.45811696  0.03160248  0.75278243     0.12600
H1800       H  0.46605399  0.11780515  0.74544812     0.14500
loop_ 
_geom_bond_atom_site_label_1 
_geom_bond_atom_site_label_2 
_geom_bond_distance 
_geom_bond_site_symmetry_2 
_ccdc_geom_bond_type 
C1         C1737   1.559       .  S
C1         C1753   1.558       .  S
C1         C1769   1.568       .  S
C1         C1785   1.557       .  S
C2         C1689   1.567       .  S
C2         C1705   1.568       .  S
C2         C1729   1.574       .  S
C2         C1777   1.566       .  S
C3         C1649   1.569       .  S
C3         C1657   1.564       .  S
C3         C1681   1.570       .  S
C3         C1793   1.563       .  S
C4         C1609   1.557       .  S
C4         C1625   1.564       .  S
C4         C1673   1.569       .  S
C4         C1721   1.569       .  S
C5         C1545   1.562       .  S
C5         C1561   1.558       .  S
C5         C1577   1.560       .  S
C5         C1593   1.559       .  S
C6         C1481   1.574       .  S
C6         C1497   1.569       .  S
C6         C1513   1.567       .  S
C6         C1529   1.570       .  S
C7         C1449   1.566       .  S
C7         C1465   1.571       .  S
C7         C1521   1.579       .  S
C7         C1585   1.562       .  S
C8         C1417   1.569       .  S
C8         C1433   1.575       .  S
C8         C1537   1.573       .  S
C8         C1601   1.566       .  S
C9         C1353   1.570       .  S
C9         C1369   1.558       .  S
C9         C1393   1.568       .  S
C9         C1409   1.576       .  S
C10        C1313   1.571       .  S
C10        C1321   1.576       .  S
C10        C1337   1.570       .  S
C10        C1401   1.572       .  S
C11        C1257   1.568       .  S
C11        C1273   1.575       .  S
C11        C1297   1.566       .  S
C11        C1385   1.564       .  S
C12        C1225   1.581       .  S
C12        C1241   1.566       .  S
C12        C1289   1.584       .  S
C12        C1345   1.575       .  S
In13         O15   2.274       .  S
In13         O16   2.216       .  S
In13         O24   2.270       .  S
In13         O18   2.294       .  S
In13         O20   2.263       .  S
In13         O21   2.258       .  S
In13         O22   2.298       .  S
In13         O25   2.245       .  S
C14          O20   1.257       .  A
C14          O22   1.263       .  A
C14          C66   1.486   1_554  S
O15          C23   1.261       .  A
O16          C23   1.255       .  A
C17          O24   1.256       .  A
C17          O18   1.261       .  A
C17        C1209   1.493       .  S
C19          O21   1.263       .  A
C19          O25   1.265       .  A
C19          C32   1.470       .  S
C23          C45   1.456       .  S
In26         O28   2.272       .  S
In26         O29   2.220       .  S
In26         O37   2.240       .  S
In26         O31   2.323       .  S
In26         O33   2.261       .  S
In26         O34   2.240       .  S
In26         O35   2.286       .  S
In26         O38   2.274       .  S
C27          O33   1.260       .  A
C27          O35   1.264       .  A
C27          C53   1.484       .  S
O28          C36   1.261       .  A
O29          C36   1.257       .  A
C30          O37   1.253       .  A
C30          O31   1.265       .  A
C30        C1505   1.497       .  S
C32          O34   1.259       .  A
C32          O38   1.265       .  A
C36          C97   1.459   1_554  S
In39         O41   2.258       .  S
In39         O42   2.241       .  S
In39         O50   2.259       .  S
In39         O44   2.288       .  S
In39         O46   2.266       .  S
In39         O47   2.218       .  S
In39         O48   2.307       .  S
In39         O51   2.268       .  S
C40          O46   1.257       .  A
C40          O48   1.263       .  A
C40         C105   1.489   1_554  S
O41          C49   1.265       .  A
O42          C49   1.258       .  A
C43          O50   1.261       .  A
C43          O44   1.258       .  A
C43        C1201   1.491       .  S
C45          O47   1.257       .  A
C45          O51   1.260       .  A
C49          C62   1.464       .  S
In52         O54   2.248       .  S
In52         O55   2.245       .  S
In52         O63   2.250       .  S
In52         O57   2.312       .  S
In52         O59   2.264       .  S
In52         O60   2.220       .  S
In52         O61   2.290       .  S
In52         O64   2.277       .  S
C53          O59   1.258       .  A
C53          O61   1.263       .  A
O54          C62   1.266       .  A
O55          C62   1.261       .  A
C56          O63   1.253       .  A
C56          O57   1.263       .  A
C56        C1177   1.491       .  S
C58          O60   1.255       .  A
C58          O64   1.262       .  A
C58          C88   1.459   1_554  S
In65         O67   2.249       .  S
In65         O68   2.263       .  S
In65         O76   2.272       .  S
In65         O70   2.283       .  S
In65         O72   2.269       .  S
In65         O73   2.238       .  S
In65         O74   2.302       .  S
In65         O77   2.257       .  S
C66          O72   1.258       .  A
C66          O74   1.261       .  A
O67          C75   1.263       .  A
O68          C75   1.260       .  A
C69          O76   1.260       .  A
C69          O70   1.259       .  A
C69        C1745   1.495       .  S
C71          O73   1.258       .  A
C71          O77   1.258       .  A
C71         C114   1.458       .  S
C75         C101   1.468       .  S
In78         O80   2.274       .  S
In78         O81   2.220       .  S
In78         O89   2.245       .  S
In78         O83   2.327       .  S
In78         O85   2.281       .  S
In78         O86   2.228       .  S
In78         O87   2.300       .  S
In78         O90   2.262       .  S
C79          O85   1.261       .  A
C79          O87   1.263       .  A
C79          C92   1.494       .  S
O80          C88   1.261       .  A
O81          C88   1.257       .  A
C82          O89   1.252       .  A
C82          O83   1.267       .  A
C82        C1169   1.500       .  S
C84          O86   1.260       .  A
C84          O90   1.267       .  A
C84         C110   1.464       .  S
In91         O93   2.270       .  S
In91         O94   2.233       .  S
In91        O102   2.249       .  S
In91         O96   2.339       .  S
In91         O98   2.277       .  S
In91         O99   2.220       .  S
In91        O100   2.299       .  S
In91        O103   2.277       .  S
C92          O98   1.261       .  A
C92         O100   1.264       .  A
O93         C101   1.267       .  A
O94         C101   1.259       .  A
C95         O102   1.253       .  A
C95          O96   1.266       .  A
C95        C1441   1.504       .  S
C97          O99   1.255       .  A
C97         O103   1.262       .  A
In104       O106   2.265       .  S
In104       O107   2.236       .  S
In104       O115   2.294       .  S
In104       O109   2.290       .  S
In104       O111   2.262       .  S
In104       O112   2.251       .  S
In104       O113   2.300       .  S
In104       O116   2.242       .  S
C105        O111   1.259       .  A
C105        O113   1.264       .  A
O106        C114   1.260       .  A
O107        C114   1.254       .  A
C108        O115   1.262       .  A
C108        O109   1.258       .  A
C108       C1641   1.504       .  S
C110        O112   1.261       .  A
C110        O116   1.264       .  A
In117       O119   2.277       .  S
In117       O120   2.213       .  S
In117       O128   2.252       .  S
In117       O122   2.298       .  S
In117       O124   2.264       .  S
In117       O125   2.243       .  S
In117       O126   2.282       .  S
In117       O129   2.263       .  S
C118        O124   1.261       .  A
C118        O126   1.265       .  A
C118        C157   1.486       .  S
O119        C127   1.264       .  A
O120        C127   1.256       .  A
C121        O128   1.254       .  A
C121        O122   1.264       .  A
C121       C1569   1.489       .  S
C123        O125   1.258       .  A
C123        O129   1.264       .  A
C123        C188   1.467       .  S
C127        C149   1.459   1_556  S
In130       O132   2.272       .  S
In130       O133   2.224       .  S
In130       O141   2.244       .  S
In130       O135   2.311       .  S
In130       O137   2.253       .  S
In130       O138   2.255       .  S
In130       O139   2.287       .  S
In130       O142   2.253       .  S
C131        O137   1.260       .  A
C131        O139   1.266       .  A
C131        C144   1.484       .  S
O132        C140   1.261       .  A
O133        C140   1.255       .  A
C134        O141   1.254       .  A
C134        O135   1.264       .  A
C134       C1145   1.493       .  S
C136        O138   1.259       .  A
C136        O142   1.264       .  A
C136        C175   1.467       .  S
C140        C162   1.459   1_554  S
In143       O145   2.246       .  S
In143       O146   2.254       .  S
In143       O154   2.273       .  S
In143       O148   2.276       .  S
In143       O150   2.262       .  S
In143       O151   2.225       .  S
In143       O152   2.296       .  S
In143       O155   2.278       .  S
C144        O150   1.260       .  A
C144        O152   1.263       .  A
O145        C153   1.263       .  A
O146        C153   1.261       .  A
C147        O154   1.258       .  A
C147        O148   1.261       .  A
C147       C1473   1.493       .  S
C149        O151   1.255       .  A
C149        O155   1.259       .  A
C153        C205   1.466       .  S
In156       O158   2.260       .  S
In156       O159   2.235       .  S
In156       O167   2.252       .  S
In156       O161   2.286       .  S
In156       O163   2.272       .  S
In156       O164   2.226       .  S
In156       O165   2.294       .  S
In156       O168   2.267       .  S
C157        O163   1.259       .  A
C157        O165   1.261       .  A
O158        C166   1.264       .  A
O159        C166   1.257       .  A
C160        O167   1.256       .  A
C160        O161   1.263       .  A
C160       C1129   1.490       .  S
C162        O164   1.258       .  A
C162        O168   1.260       .  A
C166        C218   1.462       .  S
In169       O171   2.285       .  S
In169       O172   2.209       .  S
In169       O180   2.257       .  S
In169       O174   2.322       .  S
In169       O176   2.280       .  S
In169       O177   2.231       .  S
In169       O178   2.291       .  S
In169       O181   2.268       .  S
C170        O176   1.262       .  A
C170        O178   1.263       .  A
C170        C209   1.490   1_554  S
O171        C179   1.263       .  A
O172        C179   1.255       .  A
C173        O180   1.253       .  A
C173        O174   1.267       .  A
C173       C1113   1.501       .  S
C175        O177   1.257       .  A
C175        O181   1.266       .  A
C179        C201   1.461       .  S
In182       O184   2.259       .  S
In182       O185   2.243       .  S
In182       O193   2.258       .  S
In182       O187   2.282       .  S
In182       O189   2.253       .  S
In182       O190   2.250       .  S
In182       O191   2.290       .  S
In182       O194   2.256       .  S
C183        O189   1.259       .  A
C183        O191   1.262       .  A
C183        C196   1.480   1_556  S
O184        C192   1.258       .  A
O185        C192   1.258       .  A
C186        O193   1.259       .  A
C186        O187   1.259       .  A
C186       C1697   1.491       .  S
C188        O190   1.259       .  A
C188        O194   1.263       .  A
C192        C214   1.460       .  S
In195       O197   2.255       .  S
In195       O198   2.233       .  S
In195       O206   2.273       .  S
In195       O200   2.285       .  S
In195       O202   2.255       .  S
In195       O203   2.217       .  S
In195       O204   2.295       .  S
In195       O207   2.285       .  S
C196        O202   1.256       .  A
C196        O204   1.262       .  A
O197        C205   1.267       .  A
O198        C205   1.262       .  A
C199        O206   1.254       .  A
C199        O200   1.261       .  A
C199       C1105   1.490       .  S
C201        O203   1.256       .  A
C201        O207   1.261       .  A
In208       O210   2.243       .  S
In208       O211   2.247       .  S
In208       O219   2.290       .  S
In208       O213   2.262       .  S
In208       O215   2.275       .  S
In208       O216   2.238       .  S
In208       O217   2.294       .  S
In208       O220   2.261       .  S
C209        O215   1.259       .  A
C209        O217   1.263       .  A
O210        C218   1.264       .  A
O211        C218   1.259       .  A
C212        O219   1.258       .  A
C212        O213   1.261       .  A
C212       C1617   1.493       .  S
C214        O216   1.257       .  A
C214        O220   1.260       .  A
C221       C1057   1.550       .  S
C221       C1073   1.557       .  S
C221       C1081   1.559       .  S
C221       C1217   1.561       .  S
C222       C1009   1.569       .  S
C222       C1017   1.574       .  S
C222       C1041   1.587       .  S
C222       C1121   1.590       .  S
C223        C985   1.568       .  S
C223       C1033   1.566       .  S
C223       C1065   1.560       .  S
C223       C1097   1.555       .  S
C224        C977   1.576       .  S
C224       C1025   1.581       .  S
C224       C1089   1.558       .  S
C224       C1193   1.568       .  S
In225       O227   2.279       .  S
In225       O228   2.224       .  S
In225       O236   2.262       .  S
In225       O230   2.318       .  S
In225       O232   2.275       .  S
In225       O233   2.245       .  S
In225       O234   2.307       .  S
In225       O237   2.253       .  S
C226        O232   1.260       .  A
C226        O234   1.262       .  A
C226        C239   1.493       .  S
O227        C235   1.261       .  A
O228        C235   1.255       .  A
C229        O236   1.255       .  A
C229        O230   1.264       .  A
C229       C1281   1.502       .  S
C231        O233   1.260       .  A
C231        O237   1.265       .  A
C231        C296   1.465       .  S
C235        C270   1.460   1_655  S
In238       O240   2.252       .  S
In238       O241   2.271       .  S
In238       O249   2.306       .  S
In238       O243   2.280       .  S
In238       O245   2.275       .  S
In238       O246   2.233       .  S
In238       O247   2.317       .  S
In238       O250   2.267       .  S
C239        O245   1.254       .  A
C239        O247   1.262       .  A
O240        C248   1.264       .  A
O241        C248   1.263       .  A
C242        O249   1.259       .  A
C242        O243   1.258       .  A
C242        C953   1.500       .  S
C244        O246   1.257       .  A
C244        O250   1.261       .  A
C244        C261   1.461   1_655  S
C248        C326   1.474       .  S
In251       O253   2.271       .  S
In251       O254   2.233       .  S
In251       O262   2.260       .  S
In251       O256   2.280       .  S
In251       O258   2.262       .  S
In251       O259   2.233       .  S
In251       O260   2.288       .  S
In251       O263   2.258       .  S
C252        O258   1.261       .  A
C252        O260   1.262       .  A
C252        C265   1.483       .  S
O253        C261   1.260       .  A
O254        C261   1.256       .  A
C255        O262   1.255       .  A
C255        O256   1.262       .  A
C255        C937   1.488       .  S
C257        O259   1.259       .  A
C257        O263   1.264       .  A
C257        C283   1.464       .  S
In264       O266   2.271       .  S
In264       O267   2.230       .  S
In264       O275   2.230       .  S
In264       O269   2.322       .  S
In264       O271   2.254       .  S
In264       O272   2.219       .  S
In264       O273   2.287       .  S
In264       O276   2.274       .  S
C265        O271   1.259       .  A
C265        O273   1.265       .  A
O266        C274   1.267       .  A
O267        C274   1.258       .  A
C268        O275   1.252       .  A
C268        O269   1.265       .  A
C268       C1377   1.493       .  S
C270        O272   1.256       .  A
C270        O276   1.262       .  A
C274        C313   1.466       .  S
In277       O279   2.232       .  S
In277       O280   2.264       .  S
In277       O288   2.290       .  S
In277       O282   2.258       .  S
In277       O284   2.288       .  S
In277       O285   2.240       .  S
In277       O286   2.258       .  S
In277       O289   2.251       .  S
C278        O284   1.262       .  A
C278        O286   1.258       .  A
C278        C317   1.482   1_455  S
O279        C287   1.256       .  A
O280        C287   1.259       .  A
C281        O288   1.258       .  A
C281        O282   1.260       .  A
C281        C929   1.489       .  S
C283        O285   1.263       .  A
C283        O289   1.261       .  A
C287        C309   1.457       .  S
In290       O292   2.274       .  S
In290       O293   2.229       .  S
In290       O301   2.238       .  S
In290       O295   2.307       .  S
In290       O297   2.266       .  S
In290       O298   2.240       .  S
In290       O299   2.288       .  S
In290       O302   2.256       .  S
C291        O297   1.260       .  A
C291        O299   1.263       .  A
C291        C304   1.486   1_655  S
O292        C300   1.261       .  A
O293        C300   1.257       .  A
C294        O301   1.252       .  A
C294        O295   1.264       .  A
C294       C1553   1.489       .  S
C296        O298   1.260       .  A
C296        O302   1.265       .  A
C300        C322   1.463       .  S
In303       O305   2.247       .  S
In303       O306   2.253       .  S
In303       O314   2.273       .  S
In303       O308   2.285       .  S
In303       O310   2.272       .  S
In303       O311   2.264       .  S
In303       O312   2.292       .  S
In303       O315   2.230       .  S
C304        O310   1.260       .  A
C304        O312   1.262       .  A
O305        C313   1.265       .  A
O306        C313   1.259       .  A
C307        O314   1.257       .  A
C307        O308   1.262       .  A
C307        C913   1.495       .  S
C309        O311   1.260       .  A
C309        O315   1.256       .  A
In316       O318   2.277       .  S
In316       O319   2.240       .  S
In316       O327   2.278       .  S
In316       O321   2.297       .  S
In316       O323   2.259       .  S
In316       O324   2.231       .  S
In316       O325   2.290       .  S
In316       O328   2.279       .  S
C317        O323   1.260       .  A
C317        O325   1.264       .  A
O318        C326   1.267       .  A
O319        C326   1.259       .  A
C320        O327   1.257       .  A
C320        O321   1.262       .  A
C320       C1425   1.499       .  S
C322        O324   1.255       .  A
C322        O328   1.261       .  A
C329        C865   1.561       .  S
C329        C873   1.567       .  S
C329        C889   1.561       .  S
C329       C1153   1.565       .  S
C330        C825   1.569       .  S
C330        C849   1.571       .  S
C330        C921   1.567       .  S
C330       C1161   1.580       .  S
C331        C841   1.566       .  S
C331        C897   1.579       .  S
C331        C905   1.579       .  S
C331       C1137   1.570       .  S
C332        C809   1.571       .  S
C332        C833   1.567       .  S
C332        C881   1.576       .  S
C332       C1185   1.560       .  S
In333       O335   2.269       .  S
In333       O336   2.233       .  S
In333       O344   2.315       .  S
In333       O338   2.270       .  S
In333       O340   2.272       .  S
In333       O341   2.246       .  S
In333       O342   2.297       .  S
In333       O345   2.253       .  S
C334        O340   1.260       .  A
C334        O342   1.264       .  A
C334        C373   1.491       .  S
O335        C343   1.261       .  A
O336        C343   1.255       .  A
C337        O344   1.264       .  A
C337        O338   1.255       .  A
C337       C1329   1.502       .  S
C339        O341   1.260       .  A
C339        O345   1.265       .  A
C339        C352   1.466       .  S
C343        C417   1.460   1_455  S
In346       O348   2.282       .  S
In346       O349   2.210       .  S
In346       O357   2.244       .  S
In346       O351   2.300       .  S
In346       O353   2.262       .  S
In346       O354   2.258       .  S
In346       O355   2.286       .  S
In346       O358   2.236       .  S
C347        O353   1.260       .  A
C347        O355   1.264       .  A
C347        C386   1.483   1_455  S
O348        C356   1.261       .  A
O349        C356   1.256       .  A
C350        O357   1.252       .  A
C350        O351   1.264       .  A
C350        C857   1.489       .  S
C352        O354   1.266       .  A
C352        O358   1.259       .  A
C356        C365   1.459       .  S
In359       O361   2.228       .  S
In359       O362   2.251       .  S
In359       O370   2.234       .  S
In359       O364   2.336       .  S
In359       O366   2.297       .  S
In359       O367   2.209       .  S
In359       O368   2.268       .  S
In359       O371   2.286       .  S
C360        O366   1.264       .  A
C360        O368   1.261       .  A
C360        C425   1.491   1_455  S
O361        C369   1.259       .  A
O362        C369   1.267       .  A
C363        O370   1.251       .  A
C363        O364   1.266       .  A
C363        C817   1.498       .  S
C365        O367   1.254       .  A
C365        O371   1.263       .  A
C369        C382   1.458       .  S
In372       O374   2.236       .  S
In372       O375   2.242       .  S
In372       O383   2.234       .  S
In372       O377   2.325       .  S
In372       O379   2.273       .  S
In372       O380   2.211       .  S
In372       O381   2.292       .  S
In372       O384   2.276       .  S
C373        O379   1.261       .  A
C373        O381   1.263       .  A
O374        C382   1.259       .  A
O375        C382   1.266       .  A
C376        O383   1.251       .  A
C376        O377   1.266       .  A
C376        C793   1.493       .  S
C378        O380   1.255       .  A
C378        O384   1.263       .  A
C378        C408   1.456   1_455  S
In385       O387   2.243       .  S
In385       O388   2.229       .  S
In385       O396   2.238       .  S
In385       O390   2.309       .  S
In385       O392   2.264       .  S
In385       O393   2.211       .  S
In385       O394   2.284       .  S
In385       O397   2.282       .  S
C386        O392   1.260       .  A
C386        O394   1.262       .  A
O387        C395   1.266       .  A
O388        C395   1.261       .  A
C389        O396   1.250       .  A
C389        O390   1.264       .  A
C389       C1457   1.488       .  S
C391        O393   1.254       .  A
C391        O397   1.263       .  A
C391        C434   1.458       .  S
C395        C421   1.458       .  S
In398       O400   2.271       .  S
In398       O401   2.216       .  S
In398       O409   2.265       .  S
In398       O403   2.289       .  S
In398       O405   2.259       .  S
In398       O406   2.260       .  S
In398       O407   2.299       .  S
In398       O410   2.256       .  S
C399        O405   1.258       .  A
C399        O407   1.265       .  A
C399        C412   1.487       .  S
O400        C408   1.260       .  A
O401        C408   1.256       .  A
C402        O409   1.256       .  A
C402        O403   1.262       .  A
C402        C777   1.492       .  S
C404        O406   1.266       .  A
C404        O410   1.260       .  A
C404        C430   1.472       .  S
In411       O413   2.246       .  S
In411       O414   2.237       .  S
In411       O422   2.265       .  S
In411       O416   2.295       .  S
In411       O418   2.264       .  S
In411       O419   2.236       .  S
In411       O420   2.298       .  S
In411       O423   2.265       .  S
C412        O418   1.259       .  A
C412        O420   1.262       .  A
O413        C421   1.264       .  A
O414        C421   1.259       .  A
C415        O422   1.257       .  A
C415        O416   1.263       .  A
C415       C1249   1.497       .  S
C417        O419   1.257       .  A
C417        O423   1.259       .  A
In424       O426   2.278       .  S
In424       O427   2.213       .  S
In424       O435   2.237       .  S
In424       O429   2.334       .  S
In424       O431   2.300       .  S
In424       O432   2.242       .  S
In424       O433   2.266       .  S
In424       O436   2.275       .  S
C425        O431   1.266       .  A
C425        O433   1.260       .  A
O426        C434   1.261       .  A
O427        C434   1.256       .  A
C428        O435   1.252       .  A
C428        O429   1.267       .  A
C428       C1489   1.501       .  S
C430        O432   1.258       .  A
C430        O436   1.266       .  A
In437       O439   2.277       .  S
In437       O440   2.232       .  S
In437       O448   2.256       .  S
In437       O442   2.308       .  S
In437       O444   2.299       .  S
In437       O445   2.250       .  S
In437       O446   2.277       .  S
In437       O449   2.257       .  S
C438        O444   1.262       .  A
C438        O446   1.260       .  A
C438        C477   1.490       .  S
O439        C447   1.261       .  A
O440        C447   1.256       .  A
C441        O448   1.256       .  A
C441        O442   1.262       .  A
C441       C1665   1.496       .  S
C443        O445   1.260       .  A
C443        O449   1.265       .  A
C443        C456   1.468       .  S
C447        C521   1.463   1_545  S
In450       O452   2.264       .  S
In450       O453   2.228       .  S
In450       O461   2.267       .  S
In450       O455   2.273       .  S
In450       O457   2.254       .  S
In450       O458   2.244       .  S
In450       O459   2.299       .  S
In450       O462   2.257       .  S
C451        O457   1.257       .  A
C451        O459   1.263       .  A
C451        C490   1.482   1_545  S
O452        C460   1.261       .  A
O453        C460   1.257       .  A
C454        O461   1.256       .  A
C454        O455   1.260       .  A
C454        C769   1.488       .  S
C456        O458   1.260       .  A
C456        O462   1.266       .  A
C460        C469   1.458       .  S
In463       O465   2.228       .  S
In463       O466   2.254       .  S
In463       O474   2.284       .  S
In463       O468   2.265       .  S
In463       O470   2.264       .  S
In463       O471   2.230       .  S
In463       O472   2.302       .  S
In463       O475   2.263       .  S
C464        O470   1.257       .  A
C464        O472   1.262       .  A
C464        C529   1.486   1_545  S
O465        C473   1.262       .  A
O466        C473   1.261       .  A
C467        O474   1.258       .  A
C467        O468   1.260       .  A
C467        C745   1.493       .  S
C469        O471   1.257       .  A
C469        O475   1.260       .  A
C473        C486   1.459       .  S
In476       O478   2.259       .  S
In476       O479   2.215       .  S
In476       O487   2.252       .  S
In476       O481   2.309       .  S
In476       O483   2.270       .  S
In476       O484   2.219       .  S
In476       O485   2.294       .  S
In476       O488   2.277       .  S
C477        O483   1.259       .  A
C477        O485   1.263       .  A
O478        C486   1.267       .  A
O479        C486   1.259       .  A
C480        O487   1.252       .  A
C480        O481   1.266       .  A
C480        C969   1.493       .  S
C482        O484   1.255       .  A
C482        O488   1.262       .  A
C482        C512   1.460   1_545  S
In489       O491   2.247       .  S
In489       O492   2.255       .  S
In489       O500   2.288       .  S
In489       O494   2.271       .  S
In489       O496   2.254       .  S
In489       O497   2.223       .  S
In489       O498   2.297       .  S
In489       O501   2.267       .  S
C490        O496   1.257       .  A
C490        O498   1.262       .  A
O491        C499   1.265       .  A
O492        C499   1.261       .  A
C493        O500   1.259       .  A
C493        O494   1.260       .  A
C493       C1361   1.495       .  S
C495        O497   1.255       .  A
C495        O501   1.259       .  A
C495        C538   1.454       .  S
C499        C525   1.470       .  S
In502       O504   2.275       .  S
In502       O505   2.224       .  S
In502       O513   2.251       .  S
In502       O507   2.321       .  S
In502       O509   2.266       .  S
In502       O510   2.256       .  S
In502       O511   2.302       .  S
In502       O514   2.257       .  S
C503        O509   1.259       .  A
C503        O511   1.262       .  A
C503        C516   1.488       .  S
O504        C512   1.260       .  A
O505        C512   1.256       .  A
C506        O513   1.256       .  A
C506        O507   1.264       .  A
C506       C1001   1.502       .  S
C508        O510   1.261       .  A
C508        O514   1.264       .  A
C508        C534   1.471       .  S
In515       O517   2.271       .  S
In515       O518   2.238       .  S
In515       O526   2.246       .  S
In515       O520   2.313       .  S
In515       O522   2.259       .  S
In515       O523   2.227       .  S
In515       O524   2.301       .  S
In515       O527   2.274       .  S
C516        O522   1.258       .  A
C516        O524   1.266       .  A
O517        C525   1.266       .  A
O518        C525   1.259       .  A
C519        O526   1.252       .  A
C519        O520   1.264       .  A
C519       C1633   1.493       .  S
C521        O523   1.257       .  A
C521        O527   1.262       .  A
In528       O530   2.265       .  S
In528       O531   2.218       .  S
In528       O539   2.268       .  S
In528       O533   2.301       .  S
In528       O535   2.260       .  S
In528       O536   2.247       .  S
In528       O537   2.297       .  S
In528       O540   2.268       .  S
C529        O535   1.259       .  A
C529        O537   1.265       .  A
O530        C538   1.261       .  A
O531        C538   1.256       .  A
C532        O539   1.255       .  A
C532        O533   1.264       .  A
C532       C1305   1.497       .  S
C534        O536   1.258       .  A
C534        O540   1.265       .  A
In541       O543   2.273       .  S
In541       O544   2.240       .  S
In541       O552   2.291       .  S
In541       O546   2.282       .  S
In541       O548   2.255       .  S
In541       O549   2.259       .  S
In541       O550   2.315       .  S
In541       O553   2.271       .  S
C542        O548   1.259       .  A
C542        O550   1.265       .  A
C542        C581   1.490       .  S
O543        C551   1.258       .  A
O544        C551   1.256       .  A
C545        O552   1.260       .  A
C545        O546   1.260       .  A
C545       C1713   1.501       .  S
C547        O549   1.260       .  A
C547        O553   1.264       .  A
C547        C612   1.477       .  S
C551        C573   1.463   1_565  S
In554       O556   2.280       .  S
In554       O557   2.206       .  S
In554       O565   2.243       .  S
In554       O559   2.279       .  S
In554       O561   2.260       .  S
In554       O562   2.258       .  S
In554       O563   2.278       .  S
In554       O566   2.240       .  S
C555        O561   1.259       .  A
C555        O563   1.261       .  A
C555        C568   1.477       .  S
O556        C564   1.261       .  A
O557        C564   1.255       .  A
C558        O565   1.255       .  A
C558        O559   1.261       .  A
C558       C1049   1.483       .  S
C560        O562   1.260       .  A
C560        O566   1.264       .  A
C560        C599   1.467       .  S
C564        C586   1.455   1_545  S
In567       O569   2.249       .  S
In567       O570   2.245       .  S
In567       O578   2.253       .  S
In567       O572   2.293       .  S
In567       O574   2.252       .  S
In567       O575   2.232       .  S
In567       O576   2.271       .  S
In567       O579   2.274       .  S
C568        O574   1.261       .  A
C568        O576   1.264       .  A
O569        C577   1.263       .  A
O570        C577   1.259       .  A
C571        O578   1.254       .  A
C571        O572   1.263       .  A
C571       C1761   1.489       .  S
C573        O575   1.256       .  A
C573        O579   1.262       .  A
C577        C629   1.463       .  S
In580       O582   2.237       .  S
In580       O583   2.227       .  S
In580       O591   2.264       .  S
In580       O585   2.307       .  S
In580       O587   2.253       .  S
In580       O588   2.206       .  S
In580       O589   2.312       .  S
In580       O592   2.280       .  S
C581        O587   1.257       .  A
C581        O589   1.265       .  A
O582        C590   1.266       .  A
O583        C590   1.261       .  A
C584        O591   1.253       .  A
C584        O585   1.264       .  A
C584        C993   1.497       .  S
C586        O588   1.254       .  A
C586        O592   1.262       .  A
C590        C642   1.455       .  S
In593       O595   2.265       .  S
In593       O596   2.217       .  S
In593       O604   2.219       .  S
In593       O598   2.319       .  S
In593       O600   2.256       .  S
In593       O601   2.229       .  S
In593       O602   2.287       .  S
In593       O605   2.279       .  S
C594        O600   1.259       .  A
C594        O602   1.266       .  A
C594        C633   1.484   1_545  S
O595        C603   1.262       .  A
O596        C603   1.258       .  A
C597        O604   1.251       .  A
C597        O598   1.265       .  A
C597        C729   1.489       .  S
C599        O601   1.256       .  A
C599        O605   1.266       .  A
C603        C625   1.457       .  S
In606       O608   2.268       .  S
In606       O609   2.239       .  S
In606       O617   2.299       .  S
In606       O611   2.276       .  S
In606       O613   2.277       .  S
In606       O614   2.263       .  S
In606       O615   2.316       .  S
In606       O618   2.268       .  S
C607        O613   1.255       .  A
C607        O615   1.261       .  A
C607        C620   1.492   1_565  S
O608        C616   1.260       .  A
O609        C616   1.259       .  A
C610        O617   1.258       .  A
C610        O611   1.259       .  A
C610       C1265   1.498       .  S
C612        O614   1.261       .  A
C612        O618   1.265       .  A
C616        C638   1.464       .  S
In619       O621   2.253       .  S
In619       O622   2.230       .  S
In619       O630   2.253       .  S
In619       O624   2.329       .  S
In619       O626   2.270       .  S
In619       O627   2.220       .  S
In619       O628   2.301       .  S
In619       O631   2.276       .  S
C620        O626   1.260       .  A
C620        O628   1.263       .  A
O621        C629   1.267       .  A
O622        C629   1.260       .  A
C623        O630   1.253       .  A
C623        O624   1.266       .  A
C623        C713   1.502       .  S
C625        O627   1.254       .  A
C625        O631   1.261       .  A
In632       O634   2.241       .  S
In632       O635   2.223       .  S
In632       O643   2.226       .  S
In632       O637   2.333       .  S
In632       O639   2.265       .  S
In632       O640   2.231       .  S
In632       O641   2.282       .  S
In632       O644   2.277       .  S
C633        O639   1.262       .  A
C633        O641   1.262       .  A
O634        C642   1.265       .  A
O635        C642   1.260       .  A
C636        O643   1.250       .  A
C636        O637   1.267       .  A
C636       C1233   1.496       .  S
C638        O640   1.255       .  A
C638        O644   1.263       .  A
C645        C681   1.562       .  S
C645        C697   1.566       .  S
C645        C721   1.567       .  S
C645        C961   1.566       .  S
C646        C665   1.572       .  S
C646        C689   1.572       .  S
C646        C761   1.565       .  S
C646        C945   1.571       .  S
C647        C649   1.583       .  S
C647        C673   1.574       .  S
C647        C753   1.568       .  S
C647        C801   1.565       .  S
C648        C657   1.577       .  S
C648        C705   1.573       .  S
C648        C737   1.568       .  S
C648        C785   1.570       .  S
C649        C650   1.417       .  A
C649        C654   1.423       .  A
C650        C651   1.397       .  A
C650        H659   1.082       .  S
C651        C652   1.399   1_455  A
C651        H660   1.082       .  S
C652        C658   1.405       .  A
C652        C653   1.401   1_655  A
C653        C655   1.398   1_455  A
C653        C654   1.406       .  A
C654        H661   1.074       .  S
C655        C656   1.398       .  A
C655        H662   1.082   1_655  S
C656        C657   1.420       .  A
C656        H663   1.079       .  S
C657        C658   1.423       .  A
C658        H664   1.073       .  S
C665        C666   1.419       .  A
C665        C670   1.420       .  A
C666        C667   1.396       .  A
C666        H675   1.072       .  S
C667        C668   1.397       .  A
C667        H676   1.084       .  S
C668        C674   1.399       .  A
C668        C669   1.402       .  A
C669        C671   1.394       .  A
C669        C670   1.397       .  A
C670        H677   1.084       .  S
C671        C672   1.393       .  A
C671        H678   1.084       .  S
C672        C673   1.419       .  A
C672        H679   1.068       .  S
C673        C674   1.423       .  A
C674        H680   1.082       .  S
C681        C682   1.418       .  A
C681        C686   1.411       .  A
C682        C683   1.400       .  A
C682        H691   1.082       .  S
C683        C684   1.400   1_655  A
C683        H692   1.085       .  S
C684        C690   1.409       .  A
C684        C685   1.407   1_455  A
C685        C687   1.391   1_655  A
C685        C686   1.397       .  A
C686        H693   1.078       .  S
C687        C688   1.387       .  A
C687        H694   1.086       .  S
C688        C689   1.423       .  A
C688        H695   1.081       .  S
C689        C690   1.417       .  A
C690        H696   1.079       .  S
C697        C698   1.418       .  A
C697        C702   1.413       .  A
C698        C699   1.400       .  A
C698        H707   1.081       .  S
C699        C700   1.400       .  A
C699        H708   1.083       .  S
C700        C706   1.410       .  A
C700        C701   1.407       .  A
C701        C703   1.393       .  A
C701        C702   1.406       .  A
C702        H709   1.084       .  S
C703        C704   1.396       .  A
C703        H710   1.084       .  S
C704        C705   1.420       .  A
C704        H711   1.070       .  S
C705        C706   1.421       .  A
C706        H712   1.080       .  S
C713        C714   1.411       .  A
C713        C718   1.409       .  A
C714        C715   1.404       .  A
C714        H723   1.083       .  S
C715        C716   1.402       .  A
C715        H724   1.083       .  S
C716        C722   1.421       .  A
C716        C717   1.414       .  A
C717        C719   1.396       .  A
C717        C718   1.419       .  A
C718        H725   1.084       .  S
C719        C720   1.399       .  A
C719        H726   1.084       .  S
C720        C721   1.425       .  A
C720        H727   1.079       .  S
C721        C722   1.416       .  A
C722        H728   1.084       .  S
C729        C730   1.409       .  A
C729        C734   1.411       .  A
C730        C731   1.392       .  A
C730        H739   1.084       .  S
C731        C732   1.397       .  A
C731        H740   1.082       .  S
C732        C738   1.403       .  A
C732        C733   1.411       .  A
C733        C735   1.404       .  A
C733        C734   1.417       .  A
C734        H741   1.082       .  S
C735        C736   1.407       .  A
C735        H742   1.081       .  S
C736        C737   1.416       .  A
C736        H743   1.081       .  S
C737        C738   1.414       .  A
C738        H744   1.077       .  S
C745        C746   1.410       .  A
C745        C750   1.402       .  A
C746        C747   1.410       .  A
C746        H755   1.082       .  S
C747        C748   1.408       .  A
C747        H756   1.084       .  S
C748        C754   1.424       .  A
C748        C749   1.415       .  A
C749        C751   1.391       .  A
C749        C750   1.405       .  A
C750        H757   1.085       .  S
C751        C752   1.387       .  A
C751        H758   1.085       .  S
C752        C753   1.420       .  A
C752        H759   1.084       .  S
C753        C754   1.420       .  A
C754        H760   1.083       .  S
C761        C762   1.420       .  A
C761        C766   1.418       .  A
C762        C763   1.393       .  A
C762        H771   1.079       .  S
C763        C764   1.394       .  A
C763        H772   1.084       .  S
C764        C770   1.407       .  A
C764        C765   1.413       .  A
C765        C767   1.404       .  A
C765        C766   1.415       .  A
C766        H773   1.084       .  S
C767        C768   1.404       .  A
C767        H774   1.084       .  S
C768        C769   1.408       .  A
C768        H775   1.083       .  S
C769        C770   1.404       .  A
C770        H776   1.085       .  S
C777        C778   1.406       .  A
C777        C782   1.411       .  A
C778        C779   1.403       .  A
C778        H787   1.083       .  S
C779        C780   1.406       .  A
C779        H788   1.083       .  S
C780        C786   1.412       .  A
C780        C781   1.409       .  A
C781        C783   1.400       .  A
C781        C782   1.412       .  A
C782        H789   1.083       .  S
C783        C784   1.400       .  A
C783        H790   1.083       .  S
C784        C785   1.415       .  A
C784        H791   1.081       .  S
C785        C786   1.425       .  A
C786        H792   1.080       .  S
C793        C794   1.410       .  A
C793        C798   1.407       .  A
C794        C795   1.398       .  A
C794        H803   1.083       .  S
C795        C796   1.399       .  A
C795        H804   1.083       .  S
C796        C802   1.413       .  A
C796        C797   1.415       .  A
C797        C799   1.398       .  A
C797        C798   1.416       .  A
C798        H805   1.084       .  S
C799        C800   1.399       .  A
C799        H806   1.084       .  S
C800        C801   1.421       .  A
C800        H807   1.081       .  S
C801        C802   1.413       .  A
C802        H808   1.084       .  S
C809        C810   1.414       .  A
C809        C814   1.417       .  A
C810        C811   1.408       .  A
C810        H819   1.080       .  S
C811        C812   1.404       .  A
C811        H820   1.082       .  S
C812        C818   1.421       .  A
C812        C813   1.413       .  A
C813        C815   1.399       .  A
C813        C814   1.411       .  A
C814        H821   1.084       .  S
C815        C816   1.397       .  A
C815        H822   1.083       .  S
C816        C817   1.410       .  A
C816        H823   1.083       .  S
C817        C818   1.412       .  A
C818        H824   1.083       .  S
C825        C826   1.421       .  A
C825        C830   1.414       .  A
C826        C827   1.396   1_556  A
C826        H835   1.078       .  S
C827        C828   1.395       .  A
C827        H836   1.083       .  S
C828        C834   1.409       .  A
C828        C829   1.409       .  A
C829        C831   1.391       .  A
C829        C830   1.406   1_554  A
C830        H837   1.083       .  S
C831        C832   1.392       .  A
C831        H838   1.083       .  S
C832        C833   1.425       .  A
C832        H839   1.080       .  S
C833        C834   1.413       .  A
C834        H840   1.081       .  S
C841        C842   1.417       .  A
C841        C846   1.419       .  A
C842        C843   1.395       .  A
C842        H851   1.073       .  S
C843        C844   1.396       .  A
C843        H852   1.085       .  S
C844        C850   1.400       .  A
C844        C845   1.404       .  A
C845        C847   1.394       .  A
C845        C846   1.398       .  A
C846        H853   1.080       .  S
C847        C848   1.392       .  A
C847        H854   1.085       .  S
C848        C849   1.420       .  A
C848        H855   1.073       .  S
C849        C850   1.418       .  A
C850        H856   1.085       .  S
C857        C858   1.404       .  A
C857        C862   1.412       .  A
C858        C859   1.403       .  A
C858        H867   1.082       .  S
C859        C860   1.406       .  A
C859        H868   1.085       .  S
C860        C866   1.408       .  A
C860        C861   1.410       .  A
C861        C863   1.403       .  A
C861        C862   1.408       .  A
C862        H869   1.086       .  S
C863        C864   1.401       .  A
C863        H870   1.085       .  S
C864        C865   1.412       .  A
C864        H871   1.082       .  S
C865        C866   1.420       .  A
C866        H872   1.082       .  S
C873        C874   1.417       .  A
C873        C878   1.417       .  A
C874        C875   1.403       .  A
C874        H883   1.083       .  S
C875        C876   1.401       .  A
C875        H884   1.083       .  S
C876        C882   1.414       .  A
C876        C877   1.408       .  A
C877        C879   1.394       .  A
C877        C878   1.407       .  A
C878        H885   1.080       .  S
C879        C880   1.394       .  A
C879        H886   1.083       .  S
C880        C881   1.421       .  A
C880        H887   1.077       .  S
C881        C882   1.422       .  A
C882        H888   1.081       .  S
C889        C890   1.417       .  A
C889        C894   1.417       .  A
C890        C891   1.396       .  A
C890        H899   1.082       .  S
C891        C892   1.398       .  A
C891        H900   1.085       .  S
C892        C898   1.405   1_554  A
C892        C893   1.406       .  A
C893        C895   1.396   1_554  A
C893        C894   1.405       .  A
C894        H901   1.080       .  S
C895        C896   1.396       .  A
C895        H902   1.085   1_556  S
C896        C897   1.421       .  A
C896        H903   1.075       .  S
C897        C898   1.423       .  A
C898        H904   1.084       .  S
C905        C906   1.418       .  A
C905        C910   1.423       .  A
C906        C907   1.405       .  A
C906        H915   1.082       .  S
C907        C908   1.402       .  A
C907        H916   1.083       .  S
C908        C914   1.414       .  A
C908        C909   1.407       .  A
C909        C911   1.406       .  A
C909        C910   1.411       .  A
C910        H917   1.068       .  S
C911        C912   1.402       .  A
C911        H918   1.083       .  S
C912        C913   1.405       .  A
C912        H919   1.083       .  S
C913        C914   1.414       .  A
C914        H920   1.083       .  S
C921        C922   1.421       .  A
C921        C926   1.420       .  A
C922        C923   1.384       .  A
C922        H931   1.083       .  S
C923        C924   1.389       .  A
C923        H932   1.084       .  S
C924        C930   1.401       .  A
C924        C925   1.414       .  A
C925        C927   1.410       .  A
C925        C926   1.426       .  A
C926        H933   1.082       .  S
C927        C928   1.413       .  A
C927        H934   1.083       .  S
C928        C929   1.409       .  A
C928        H935   1.083       .  S
C929        C930   1.400       .  A
C930        H936   1.085       .  S
C937        C938   1.404       .  A
C937        C942   1.414       .  A
C938        C939   1.399       .  A
C938        H947   1.083       .  S
C939        C940   1.405       .  A
C939        H948   1.086       .  S
C940        C946   1.405       .  A
C940        C941   1.408       .  A
C941        C943   1.403       .  A
C941        C942   1.412       .  A
C942        H949   1.085       .  S
C943        C944   1.405       .  A
C943        H950   1.085       .  S
C944        C945   1.415       .  A
C944        H951   1.082       .  S
C945        C946   1.422       .  A
C946        H952   1.080       .  S
C953        C954   1.410       .  A
C953        C958   1.404       .  A
C954        C955   1.413       .  A
C954        H963   1.083       .  S
C955        C956   1.409       .  A
C955        H964   1.083       .  S
C956        C962   1.430       .  A
C956        C957   1.416       .  A
C957        C959   1.392       .  A
C957        C958   1.410       .  A
C958        H965   1.084       .  S
C959        C960   1.389       .  A
C959        H966   1.084       .  S
C960        C961   1.419       .  A
C960        H967   1.083       .  S
C961        C962   1.421       .  A
C962        H968   1.083       .  S
C969        C970   1.411       .  A
C969        C974   1.402       .  A
C970        C971   1.405       .  A
C970        H979   1.083       .  S
C971        C972   1.403       .  A
C971        H980   1.083       .  S
C972        C978   1.421       .  A
C972        C973   1.414       .  A
C973        C975   1.389       .  A
C973        C974   1.411       .  A
C974        H981   1.083       .  S
C975        C976   1.391       .  A
C975        H982   1.083       .  S
C976        C977   1.426       .  A
C976        H983   1.075       .  S
C977        C978   1.420       .  A
C978        H984   1.083       .  S
C985        C986   1.420       .  A
C985        C990   1.421       .  A
C986        C987   1.396       .  A
C986        H995   1.076       .  S
C987        C988   1.395       .  A
C987        H996   1.084       .  S
C988        C994   1.413       .  A
C988        C989   1.413       .  A
C989        C991   1.405       .  A
C989        C990   1.419       .  A
C990        H997   1.084       .  S
C991        C992   1.406       .  A
C991        H998   1.084       .  S
C992        C993   1.411       .  A
C992        H999   1.083       .  S
C993        C994   1.405       .  A
C994       H1000   1.084       .  S
C1001      C1002   1.409       .  A
C1001      C1006   1.413       .  A
C1002      C1003   1.400       .  A
C1002      H1011   1.083       .  S
C1003      C1004   1.401       .  A
C1003      H1012   1.083       .  S
C1004      C1010   1.417       .  A
C1004      C1005   1.414       .  A
C1005      C1007   1.401       .  A
C1005      C1006   1.422       .  A
C1006      H1013   1.084       .  S
C1007      C1008   1.404       .  A
C1007      H1014   1.084       .  S
C1008      C1009   1.421       .  A
C1008      H1015   1.080       .  S
C1009      C1010   1.416       .  A
C1010      H1016   1.083       .  S
C1017      C1018   1.420       .  A
C1017      C1022   1.423       .  A
C1018      C1019   1.398       .  A
C1018      H1027   1.082       .  S
C1019      C1020   1.399   1_565  A
C1019      H1028   1.084       .  S
C1020      C1026   1.410       .  A
C1020      C1021   1.406   1_545  A
C1021      C1023   1.399   1_565  A
C1021      C1022   1.411       .  A
C1022      H1029   1.080       .  S
C1023      C1024   1.399       .  A
C1023      H1030   1.084       .  S
C1024      C1025   1.421       .  A
C1024      H1031   1.081       .  S
C1025      C1026   1.423       .  A
C1026      H1032   1.074       .  S
C1033      C1034   1.417       .  A
C1033      C1038   1.418       .  A
C1034      C1035   1.396       .  A
C1034      H1043   1.079       .  S
C1035      C1036   1.399       .  A
C1035      H1044   1.084       .  S
C1036      C1042   1.405       .  A
C1036      C1037   1.403       .  A
C1037      C1039   1.396       .  A
C1037      C1038   1.407       .  A
C1038      H1045   1.084       .  S
C1039      C1040   1.401       .  A
C1039      H1046   1.084       .  S
C1040      C1041   1.421       .  A
C1040      H1047   1.059       .  S
C1041      C1042   1.427       .  A
C1042      H1048   1.079       .  S
C1049      C1050   1.404       .  A
C1049      C1054   1.408       .  A
C1050      C1051   1.402       .  A
C1050      H1059   1.083       .  S
C1051      C1052   1.406       .  A
C1051      H1060   1.084       .  S
C1052      C1058   1.409       .  A
C1052      C1053   1.411       .  A
C1053      C1055   1.400       .  A
C1053      C1054   1.404       .  A
C1054      H1061   1.085       .  S
C1055      C1056   1.396       .  A
C1055      H1062   1.084       .  S
C1056      C1057   1.413       .  A
C1056      H1063   1.083       .  S
C1057      C1058   1.418       .  A
C1058      H1064   1.081       .  S
C1065      C1066   1.417       .  A
C1065      C1070   1.411       .  A
C1066      C1067   1.399       .  A
C1066      H1075   1.080       .  S
C1067      C1068   1.398   1_565  A
C1067      H1076   1.083       .  S
C1068      C1074   1.407       .  A
C1068      C1069   1.411   1_545  A
C1069      C1071   1.393   1_565  A
C1069      C1070   1.398       .  A
C1070      H1077   1.084       .  S
C1071      C1072   1.390       .  A
C1071      H1078   1.084   1_545  S
C1072      C1073   1.421       .  A
C1072      H1079   1.080       .  S
C1073      C1074   1.410       .  A
C1074      H1080   1.081       .  S
C1081      C1082   1.421       .  A
C1081      C1086   1.414       .  A
C1082      C1083   1.383       .  A
C1082      H1091   1.077       .  S
C1083      C1084   1.388       .  A
C1083      H1092   1.084       .  S
C1084      C1090   1.396       .  A
C1084      C1085   1.411       .  A
C1085      C1087   1.399       .  A
C1085      C1086   1.409       .  A
C1086      H1093   1.084       .  S
C1087      C1088   1.399       .  A
C1087      H1094   1.084       .  S
C1088      C1089   1.420       .  A
C1088      H1095   1.083       .  S
C1089      C1090   1.407       .  A
C1090      H1096   1.080       .  S
C1097      C1098   1.418       .  A
C1097      C1102   1.416       .  A
C1098      C1099   1.387       .  A
C1098      H1107   1.083       .  S
C1099      C1100   1.391       .  A
C1099      H1108   1.084       .  S
C1100      C1106   1.406       .  A
C1100      C1101   1.416       .  A
C1101      C1103   1.406       .  A
C1101      C1102   1.422       .  A
C1102      H1109   1.083       .  S
C1103      C1104   1.408       .  A
C1103      H1110   1.083       .  S
C1104      C1105   1.410       .  A
C1104      H1111   1.083       .  S
C1105      C1106   1.401       .  A
C1106      H1112   1.085       .  S
C1113      C1114   1.406       .  A
C1113      C1118   1.416       .  A
C1114      C1115   1.407       .  A
C1114      H1123   1.083       .  S
C1115      C1116   1.408       .  A
C1115      H1124   1.083       .  S
C1116      C1122   1.415       .  A
C1116      C1117   1.407       .  A
C1117      C1119   1.403       .  A
C1117      C1118   1.414       .  A
C1118      H1125   1.084       .  S
C1119      C1120   1.406       .  A
C1119      H1126   1.084       .  S
C1120      C1121   1.413       .  A
C1120      H1127   1.078       .  S
C1121      C1122   1.426       .  A
C1122      H1128   1.078       .  S
C1129      C1130   1.410       .  A
C1129      C1134   1.404       .  A
C1130      C1131   1.403       .  A
C1130      H1139   1.082       .  S
C1131      C1132   1.403       .  A
C1131      H1140   1.085       .  S
C1132      C1138   1.416       .  A
C1132      C1133   1.414       .  A
C1133      C1135   1.394       .  A
C1133      C1134   1.410       .  A
C1134      H1141   1.086       .  S
C1135      C1136   1.394       .  A
C1135      H1142   1.086       .  S
C1136      C1137   1.422       .  A
C1136      H1143   1.078       .  S
C1137      C1138   1.419       .  A
C1138      H1144   1.085       .  S
C1145      C1146   1.409       .  A
C1145      C1150   1.409       .  A
C1146      C1147   1.399       .  A
C1146      H1155   1.083       .  S
C1147      C1148   1.400       .  A
C1147      H1156   1.084       .  S
C1148      C1154   1.411       .  A
C1148      C1149   1.413       .  A
C1149      C1151   1.401       .  A
C1149      C1150   1.415       .  A
C1150      H1157   1.084       .  S
C1151      C1152   1.402       .  A
C1151      H1158   1.084       .  S
C1152      C1153   1.417       .  A
C1152      H1159   1.079       .  S
C1153      C1154   1.415       .  A
C1154      H1160   1.084       .  S
C1161      C1162   1.424       .  A
C1161      C1166   1.421       .  A
C1162      C1163   1.397       .  A
C1162      H1171   1.073       .  S
C1163      C1164   1.393       .  A
C1163      H1172   1.085       .  S
C1164      C1170   1.417       .  A
C1164      C1165   1.414       .  A
C1165      C1167   1.402       .  A
C1165      C1166   1.422       .  A
C1166      H1173   1.084       .  S
C1167      C1168   1.404       .  A
C1167      H1174   1.084       .  S
C1168      C1169   1.412       .  A
C1168      H1175   1.083       .  S
C1169      C1170   1.406       .  A
C1170      H1176   1.085       .  S
C1177      C1178   1.408       .  A
C1177      C1182   1.410       .  A
C1178      C1179   1.398       .  A
C1178      H1187   1.083       .  S
C1179      C1180   1.401       .  A
C1179      H1188   1.085       .  S
C1180      C1186   1.409       .  A
C1180      C1181   1.413       .  A
C1181      C1183   1.405       .  A
C1181      C1182   1.417       .  A
C1182      H1189   1.084       .  S
C1183      C1184   1.406       .  A
C1183      H1190   1.084       .  S
C1184      C1185   1.412       .  A
C1184      H1191   1.080       .  S
C1185      C1186   1.417       .  A
C1186      H1192   1.085       .  S
C1193      C1194   1.420       .  A
C1193      C1198   1.422       .  A
C1194      C1195   1.386       .  A
C1194      H1203   1.083       .  S
C1195      C1196   1.390       .  A
C1195      H1204   1.085       .  S
C1196      C1202   1.403       .  A
C1196      C1197   1.414       .  A
C1197      C1199   1.410       .  A
C1197      C1198   1.426       .  A
C1198      H1205   1.082       .  S
C1199      C1200   1.413       .  A
C1199      H1206   1.084       .  S
C1200      C1201   1.409       .  A
C1200      H1207   1.082       .  S
C1201      C1202   1.401       .  A
C1202      H1208   1.085       .  S
C1209      C1210   1.408       .  A
C1209      C1214   1.408       .  A
C1210      C1211   1.403       .  A
C1210      H1219   1.083       .  S
C1211      C1212   1.405       .  A
C1211      H1220   1.083       .  S
C1212      C1218   1.415       .  A
C1212      C1213   1.413       .  A
C1213      C1215   1.398       .  A
C1213      C1214   1.412       .  A
C1214      H1221   1.084       .  S
C1215      C1216   1.397       .  A
C1215      H1222   1.083       .  S
C1216      C1217   1.416       .  A
C1216      H1223   1.083       .  S
C1217      C1218   1.419       .  A
C1218      H1224   1.081       .  S
C1225      C1226   1.422       .  A
C1225      C1230   1.415       .  A
C1226      C1227   1.403       .  A
C1226      H1235   1.077       .  S
C1227      C1228   1.398       .  A
C1227      H1236   1.082       .  S
C1228      C1234   1.418       .  A
C1228      C1229   1.412       .  A
C1229      C1231   1.399       .  A
C1229      C1230   1.414       .  A
C1230      H1237   1.075       .  S
C1231      C1232   1.398       .  A
C1231      H1238   1.082       .  S
C1232      C1233   1.411       .  A
C1232      H1239   1.083       .  S
C1233      C1234   1.409       .  A
C1234      H1240   1.083       .  S
C1241      C1242   1.421       .  A
C1241      C1246   1.420       .  A
C1242      C1243   1.396       .  A
C1242      H1251   1.080       .  S
C1243      C1244   1.396       .  A
C1243      H1252   1.084       .  S
C1244      C1250   1.414       .  A
C1244      C1245   1.414       .  A
C1245      C1247   1.404       .  A
C1245      C1246   1.421       .  A
C1246      H1253   1.083       .  S
C1247      C1248   1.405       .  A
C1247      H1254   1.083       .  S
C1248      C1249   1.410       .  A
C1248      H1255   1.083       .  S
C1249      C1250   1.407       .  A
C1250      H1256   1.084       .  S
C1257      C1258   1.421       .  A
C1257      C1262   1.419       .  A
C1258      C1259   1.387       .  A
C1258      H1267   1.083       .  S
C1259      C1260   1.391       .  A
C1259      H1268   1.085       .  S
C1260      C1266   1.408       .  A
C1260      C1261   1.416       .  A
C1261      C1263   1.408       .  A
C1261      C1262   1.429       .  A
C1262      H1269   1.082       .  S
C1263      C1264   1.412       .  A
C1263      H1270   1.084       .  S
C1264      C1265   1.410       .  A
C1264      H1271   1.082       .  S
C1265      C1266   1.404       .  A
C1266      H1272   1.085       .  S
C1273      C1274   1.427       .  A
C1273      C1278   1.418       .  A
C1274      C1275   1.398       .  A
C1274      H1283   1.077       .  S
C1275      C1276   1.394       .  A
C1275      H1284   1.084       .  S
C1276      C1282   1.418       .  A
C1276      C1277   1.414       .  A
C1277      C1279   1.402       .  A
C1277      C1278   1.423       .  A
C1278      H1285   1.084       .  S
C1279      C1280   1.404       .  A
C1279      H1286   1.084       .  S
C1280      C1281   1.410       .  A
C1280      H1287   1.082       .  S
C1281      C1282   1.409       .  A
C1282      H1288   1.085       .  S
C1289      C1290   1.423       .  A
C1289      C1294   1.422       .  A
C1290      C1291   1.404       .  A
C1290      H1299   1.044       .  S
C1291      C1292   1.397       .  A
C1291      H1300   1.088       .  S
C1292      C1298   1.406       .  A
C1292      C1293   1.403       .  A
C1293      C1295   1.397       .  A
C1293      C1294   1.399       .  A
C1294      H1301   1.081       .  S
C1295      C1296   1.393       .  A
C1295      H1302   1.086       .  S
C1296      C1297   1.416       .  A
C1296      H1303   1.075       .  S
C1297      C1298   1.420       .  A
C1298      H1304   1.086       .  S
C1305      C1306   1.405       .  A
C1305      C1310   1.415       .  A
C1306      C1307   1.404       .  A
C1306      H1315   1.084       .  S
C1307      C1308   1.407       .  A
C1307      H1316   1.082       .  S
C1308      C1314   1.413       .  A
C1308      C1309   1.409       .  A
C1309      C1311   1.405       .  A
C1309      C1310   1.415       .  A
C1310      H1317   1.083       .  S
C1311      C1312   1.406       .  A
C1311      H1318   1.082       .  S
C1312      C1313   1.413       .  A
C1312      H1319   1.083       .  S
C1313      C1314   1.424       .  A
C1314      H1320   1.078       .  S
C1321      C1322   1.419       .  A
C1321      C1326   1.420       .  A
C1322      C1323   1.401       .  A
C1322      H1331   1.080       .  S
C1323      C1324   1.399       .  A
C1323      H1332   1.083       .  S
C1324      C1330   1.418       .  A
C1324      C1325   1.413       .  A
C1325      C1327   1.404       .  A
C1325      C1326   1.421       .  A
C1326      H1333   1.084       .  S
C1327      C1328   1.406       .  A
C1327      H1334   1.083       .  S
C1328      C1329   1.411       .  A
C1328      H1335   1.083       .  S
C1329      C1330   1.409       .  A
C1330      H1336   1.083       .  S
C1337      C1338   1.419       .  A
C1337      C1342   1.419       .  A
C1338      C1339   1.397       .  A
C1338      H1347   1.082       .  S
C1339      C1340   1.398   1_455  A
C1339      H1348   1.085       .  S
C1340      C1346   1.405       .  A
C1340      C1341   1.406   1_655  A
C1341      C1343   1.398   1_455  A
C1341      C1342   1.405       .  A
C1342      H1349   1.079       .  S
C1343      C1344   1.396       .  A
C1343      H1350   1.085   1_655  S
C1344      C1345   1.418       .  A
C1344      H1351   1.076       .  S
C1345      C1346   1.422       .  A
C1346      H1352   1.086       .  S
C1353      C1354   1.418       .  A
C1353      C1358   1.419       .  A
C1354      C1355   1.405       .  A
C1354      H1363   1.080       .  S
C1355      C1356   1.403       .  A
C1355      H1364   1.084       .  S
C1356      C1362   1.416       .  A
C1356      C1357   1.411       .  A
C1357      C1359   1.403       .  A
C1357      C1358   1.410       .  A
C1358      H1365   1.084       .  S
C1359      C1360   1.401       .  A
C1359      H1366   1.084       .  S
C1360      C1361   1.407       .  A
C1360      H1367   1.083       .  S
C1361      C1362   1.412       .  A
C1362      H1368   1.084       .  S
C1369      C1370   1.416       .  A
C1369      C1374   1.415       .  A
C1370      C1371   1.405       .  A
C1370      H1379   1.081       .  S
C1371      C1372   1.404       .  A
C1371      H1380   1.083       .  S
C1372      C1378   1.418       .  A
C1372      C1373   1.412       .  A
C1373      C1375   1.399       .  A
C1373      C1374   1.406       .  A
C1374      H1381   1.084       .  S
C1375      C1376   1.395       .  A
C1375      H1382   1.083       .  S
C1376      C1377   1.409       .  A
C1376      H1383   1.084       .  S
C1377      C1378   1.411       .  A
C1378      H1384   1.083       .  S
C1385      C1386   1.419       .  A
C1385      C1390   1.414       .  A
C1386      C1387   1.398       .  A
C1386      H1395   1.079       .  S
C1387      C1388   1.398   1_655  A
C1387      H1396   1.084   1_655  S
C1388      C1394   1.409       .  A
C1388      C1389   1.410       .  A
C1389      C1391   1.393       .  A
C1389      C1390   1.404   1_455  A
C1390      H1397   1.084       .  S
C1391      C1392   1.393       .  A
C1391      H1398   1.084       .  S
C1392      C1393   1.422       .  A
C1392      H1399   1.082       .  S
C1393      C1394   1.415       .  A
C1394      H1400   1.080       .  S
C1401      C1402   1.418       .  A
C1401      C1406   1.424       .  A
C1402      C1403   1.392       .  A
C1402      H1411   1.083       .  S
C1403      C1404   1.397       .  A
C1403      H1412   1.082       .  S
C1404      C1410   1.403       .  A
C1404      C1405   1.403       .  A
C1405      C1407   1.402       .  A
C1405      C1406   1.412       .  A
C1406      H1413   1.072       .  S
C1407      C1408   1.403       .  A
C1407      H1414   1.082       .  S
C1408      C1409   1.419       .  A
C1408      H1415   1.082       .  S
C1409      C1410   1.421       .  A
C1410      H1416   1.068       .  S
C1417      C1418   1.417       .  A
C1417      C1422   1.422       .  A
C1418      C1419   1.401       .  A
C1418      H1427   1.083       .  S
C1419      C1420   1.401       .  A
C1419      H1428   1.083       .  S
C1420      C1426   1.414       .  A
C1420      C1421   1.412       .  A
C1421      C1423   1.407       .  A
C1421      C1422   1.419       .  A
C1422      H1429   1.078       .  S
C1423      C1424   1.407       .  A
C1423      H1430   1.083       .  S
C1424      C1425   1.407       .  A
C1424      H1431   1.083       .  S
C1425      C1426   1.412       .  A
C1426      H1432   1.084       .  S
C1433      C1434   1.417       .  A
C1433      C1438   1.418       .  A
C1434      C1435   1.405       .  A
C1434      H1443   1.079       .  S
C1435      C1436   1.402       .  A
C1435      H1444   1.083       .  S
C1436      C1442   1.422       .  A
C1436      C1437   1.413       .  A
C1437      C1439   1.401       .  A
C1437      C1438   1.416       .  A
C1438      H1445   1.084       .  S
C1439      C1440   1.401       .  A
C1439      H1446   1.084       .  S
C1440      C1441   1.411       .  A
C1440      H1447   1.083       .  S
C1441      C1442   1.412       .  A
C1442      H1448   1.083       .  S
C1449      C1450   1.417       .  A
C1449      C1454   1.417       .  A
C1450      C1451   1.398       .  A
C1450      H1459   1.079       .  S
C1451      C1452   1.398       .  A
C1451      H1460   1.083       .  S
C1452      C1458   1.411       .  A
C1452      C1453   1.414       .  A
C1453      C1455   1.401       .  A
C1453      C1454   1.411       .  A
C1454      H1461   1.084       .  S
C1455      C1456   1.399       .  A
C1455      H1462   1.083       .  S
C1456      C1457   1.410       .  A
C1456      H1463   1.083       .  S
C1457      C1458   1.405       .  A
C1458      H1464   1.083       .  S
C1465      C1466   1.420       .  A
C1465      C1470   1.419       .  A
C1466      C1467   1.404       .  A
C1466      H1475   1.082       .  S
C1467      C1468   1.402       .  A
C1467      H1476   1.083       .  S
C1468      C1474   1.415       .  A
C1468      C1469   1.410       .  A
C1469      C1471   1.405       .  A
C1469      C1470   1.413       .  A
C1470      H1477   1.074       .  S
C1471      C1472   1.402       .  A
C1471      H1478   1.083       .  S
C1472      C1473   1.405       .  A
C1472      H1479   1.083       .  S
C1473      C1474   1.413       .  A
C1474      H1480   1.083       .  S
C1481      C1482   1.419       .  A
C1481      C1486   1.418       .  A
C1482      C1483   1.403       .  A
C1482      H1491   1.078       .  S
C1483      C1484   1.400       .  A
C1483      H1492   1.083       .  S
C1484      C1490   1.420       .  A
C1484      C1485   1.413       .  A
C1485      C1487   1.400       .  A
C1485      C1486   1.416       .  A
C1486      H1493   1.084       .  S
C1487      C1488   1.400       .  A
C1487      H1494   1.084       .  S
C1488      C1489   1.411       .  A
C1488      H1495   1.083       .  S
C1489      C1490   1.411       .  A
C1490      H1496   1.084       .  S
C1497      C1498   1.419       .  A
C1497      C1502   1.415       .  A
C1498      C1499   1.403       .  A
C1498      H1507   1.080       .  S
C1499      C1500   1.401       .  A
C1499      H1508   1.083       .  S
C1500      C1506   1.419       .  A
C1500      C1501   1.413       .  A
C1501      C1503   1.400       .  A
C1501      C1502   1.413       .  A
C1502      H1509   1.083       .  S
C1503      C1504   1.399       .  A
C1503      H1510   1.083       .  S
C1504      C1505   1.409       .  A
C1504      H1511   1.083       .  S
C1505      C1506   1.411       .  A
C1506      H1512   1.083       .  S
C1513      C1514   1.419       .  A
C1513      C1518   1.415       .  A
C1514      C1515   1.399       .  A
C1514      H1523   1.082       .  S
C1515      C1516   1.399       .  A
C1515      H1524   1.084       .  S
C1516      C1522   1.410       .  A
C1516      C1517   1.407       .  A
C1517      C1519   1.393       .  A
C1517      C1518   1.407       .  A
C1518      H1525   1.077       .  S
C1519      C1520   1.394       .  A
C1519      H1526   1.085       .  S
C1520      C1521   1.424       .  A
C1520      H1527   1.071       .  S
C1521      C1522   1.422       .  A
C1522      H1528   1.084       .  S
C1529      C1530   1.418       .  A
C1529      C1534   1.422       .  A
C1530      C1531   1.392       .  A
C1530      H1539   1.077       .  S
C1531      C1532   1.397   1_554  A
C1531      H1540   1.084       .  S
C1532      C1538   1.403       .  A
C1532      C1533   1.405   1_556  A
C1533      C1535   1.402   1_554  A
C1533      C1534   1.413       .  A
C1534      H1541   1.084       .  S
C1535      C1536   1.404       .  A
C1535      H1542   1.084       .  S
C1536      C1537   1.419       .  A
C1536      H1543   1.082       .  S
C1537      C1538   1.420       .  A
C1538      H1544   1.076       .  S
C1545      C1546   1.418       .  A
C1545      C1550   1.414       .  A
C1546      C1547   1.398       .  A
C1546      H1555   1.079       .  S
C1547      C1548   1.398       .  A
C1547      H1556   1.083       .  S
C1548      C1554   1.412       .  A
C1548      C1549   1.413       .  A
C1549      C1551   1.400       .  A
C1549      C1550   1.410       .  A
C1550      H1557   1.084       .  S
C1551      C1552   1.399       .  A
C1551      H1558   1.083       .  S
C1552      C1553   1.409       .  A
C1552      H1559   1.083       .  S
C1553      C1554   1.406       .  A
C1554      H1560   1.084       .  S
C1561      C1562   1.413       .  A
C1561      C1566   1.417       .  A
C1562      C1563   1.400       .  A
C1562      H1571   1.083       .  S
C1563      C1564   1.403       .  A
C1563      H1572   1.083       .  S
C1564      C1570   1.408       .  A
C1564      C1565   1.411       .  A
C1565      C1567   1.405       .  A
C1565      C1566   1.409       .  A
C1566      H1573   1.080       .  S
C1567      C1568   1.402       .  A
C1567      H1574   1.083       .  S
C1568      C1569   1.404       .  A
C1568      H1575   1.083       .  S
C1569      C1570   1.412       .  A
C1570      H1576   1.084       .  S
C1577      C1578   1.417       .  A
C1577      C1582   1.415       .  A
C1578      C1579   1.397       .  A
C1578      H1587   1.083       .  S
C1579      C1580   1.399   1_556  A
C1579      H1588   1.083   1_556  S
C1580      C1586   1.402       .  A
C1580      C1581   1.406       .  A
C1581      C1583   1.396       .  A
C1581      C1582   1.400   1_554  A
C1582      H1589   1.078       .  S
C1583      C1584   1.392       .  A
C1583      H1590   1.084       .  S
C1584      C1585   1.417       .  A
C1584      H1591   1.076       .  S
C1585      C1586   1.419       .  A
C1586      H1592   1.084       .  S
C1593      C1594   1.418       .  A
C1593      C1598   1.414       .  A
C1594      C1595   1.398       .  A
C1594      H1603   1.083       .  S
C1595      C1596   1.399       .  A
C1595      H1604   1.084       .  S
C1596      C1602   1.408       .  A
C1596      C1597   1.408       .  A
C1597      C1599   1.394       .  A
C1597      C1598   1.403       .  A
C1598      H1605   1.079       .  S
C1599      C1600   1.391       .  A
C1599      H1606   1.085       .  S
C1600      C1601   1.421       .  A
C1600      H1607   1.077       .  S
C1601      C1602   1.418       .  A
C1602      H1608   1.084       .  S
C1609      C1610   1.416       .  A
C1609      C1614   1.419       .  A
C1610      C1611   1.385       .  A
C1610      H1619   1.083       .  S
C1611      C1612   1.391       .  A
C1611      H1620   1.084       .  S
C1612      C1618   1.403       .  A
C1612      C1613   1.415       .  A
C1613      C1615   1.409       .  A
C1613      C1614   1.425       .  A
C1614      H1621   1.083       .  S
C1615      C1616   1.412       .  A
C1615      H1622   1.083       .  S
C1616      C1617   1.411       .  A
C1616      H1623   1.083       .  S
C1617      C1618   1.401       .  A
C1618      H1624   1.085       .  S
C1625      C1626   1.422       .  A
C1625      C1630   1.416       .  A
C1626      C1627   1.396       .  A
C1626      H1635   1.077       .  S
C1627      C1628   1.395       .  A
C1627      H1636   1.084       .  S
C1628      C1634   1.413       .  A
C1628      C1629   1.414       .  A
C1629      C1631   1.402       .  A
C1629      C1630   1.416       .  A
C1630      H1637   1.084       .  S
C1631      C1632   1.402       .  A
C1631      H1638   1.083       .  S
C1632      C1633   1.410       .  A
C1632      H1639   1.083       .  S
C1633      C1634   1.406       .  A
C1634      H1640   1.084       .  S
C1641      C1642   1.411       .  A
C1641      C1646   1.407       .  A
C1642      C1643   1.412       .  A
C1642      H1651   1.083       .  S
C1643      C1644   1.409       .  A
C1643      H1652   1.083       .  S
C1644      C1650   1.428       .  A
C1644      C1645   1.413       .  A
C1645      C1647   1.395       .  A
C1645      C1646   1.414       .  A
C1646      H1653   1.084       .  S
C1647      C1648   1.395       .  A
C1647      H1654   1.084       .  S
C1648      C1649   1.417       .  A
C1648      H1655   1.081       .  S
C1649      C1650   1.425       .  A
C1650      H1656   1.082       .  S
C1657      C1658   1.420       .  A
C1657      C1662   1.416       .  A
C1658      C1659   1.403       .  A
C1658      H1667   1.078       .  S
C1659      C1660   1.400       .  A
C1659      H1668   1.084       .  S
C1660      C1666   1.419       .  A
C1660      C1661   1.413       .  A
C1661      C1663   1.401       .  A
C1661      C1662   1.414       .  A
C1662      H1669   1.084       .  S
C1663      C1664   1.400       .  A
C1663      H1670   1.084       .  S
C1664      C1665   1.408       .  A
C1664      H1671   1.083       .  S
C1665      C1666   1.411       .  A
C1666      H1672   1.084       .  S
C1673      C1674   1.421       .  A
C1673      C1678   1.411       .  A
C1674      C1675   1.401       .  A
C1674      H1683   1.080       .  S
C1675      C1676   1.398   1_565  A
C1675      H1684   1.084       .  S
C1676      C1682   1.415       .  A
C1676      C1677   1.412   1_545  A
C1677      C1679   1.393   1_565  A
C1677      C1678   1.408       .  A
C1678      H1685   1.084       .  S
C1679      C1680   1.392       .  A
C1679      H1686   1.084       .  S
C1680      C1681   1.421       .  A
C1680      H1687   1.080       .  S
C1681      C1682   1.415       .  A
C1682      H1688   1.081       .  S
C1689      C1690   1.417       .  A
C1689      C1694   1.417       .  A
C1690      C1691   1.405       .  A
C1690      H1699   1.080       .  S
C1691      C1692   1.403       .  A
C1691      H1700   1.083       .  S
C1692      C1698   1.415       .  A
C1692      C1693   1.410       .  A
C1693      C1695   1.402       .  A
C1693      C1694   1.408       .  A
C1694      H1701   1.084       .  S
C1695      C1696   1.399       .  A
C1695      H1702   1.083       .  S
C1696      C1697   1.406       .  A
C1696      H1703   1.083       .  S
C1697      C1698   1.412       .  A
C1698      H1704   1.083       .  S
C1705      C1706   1.416       .  A
C1705      C1710   1.422       .  A
C1706      C1707   1.400       .  A
C1706      H1715   1.083       .  S
C1707      C1708   1.400       .  A
C1707      H1716   1.083       .  S
C1708      C1714   1.416       .  A
C1708      C1709   1.413       .  A
C1709      C1711   1.406       .  A
C1709      C1710   1.421       .  A
C1710      H1717   1.081       .  S
C1711      C1712   1.406       .  A
C1711      H1718   1.083       .  S
C1712      C1713   1.408       .  A
C1712      H1719   1.083       .  S
C1713      C1714   1.411       .  A
C1714      H1720   1.084       .  S
C1721      C1722   1.419       .  A
C1721      C1726   1.412       .  A
C1722      C1723   1.404       .  A
C1722      H1731   1.082       .  S
C1723      C1724   1.402       .  A
C1723      H1732   1.085       .  S
C1724      C1730   1.420       .  A
C1724      C1725   1.411       .  A
C1725      C1727   1.392       .  A
C1725      C1726   1.408       .  A
C1726      H1733   1.082       .  S
C1727      C1728   1.391       .  A
C1727      H1734   1.085       .  S
C1728      C1729   1.423       .  A
C1728      H1735   1.075       .  S
C1729      C1730   1.420       .  A
C1730      H1736   1.085       .  S
C1737      C1738   1.416       .  A
C1737      C1742   1.420       .  A
C1738      C1739   1.395       .  A
C1738      H1747   1.082       .  S
C1739      C1740   1.397       .  A
C1739      H1748   1.083       .  S
C1740      C1746   1.410       .  A
C1740      C1741   1.413       .  A
C1741      C1743   1.407       .  A
C1741      C1742   1.420       .  A
C1742      H1749   1.081       .  S
C1743      C1744   1.407       .  A
C1743      H1750   1.083       .  S
C1744      C1745   1.408       .  A
C1744      H1751   1.083       .  S
C1745      C1746   1.407       .  A
C1746      H1752   1.084       .  S
C1753      C1754   1.412       .  A
C1753      C1758   1.422       .  A
C1754      C1755   1.401       .  A
C1754      H1763   1.083       .  S
C1755      C1756   1.402       .  A
C1755      H1764   1.083       .  S
C1756      C1762   1.409       .  A
C1756      C1757   1.410       .  A
C1757      C1759   1.406       .  A
C1757      C1758   1.409       .  A
C1758      H1765   1.080       .  S
C1759      C1760   1.402       .  A
C1759      H1766   1.084       .  S
C1760      C1761   1.404       .  A
C1760      H1767   1.083       .  S
C1761      C1762   1.411       .  A
C1762      H1768   1.084       .  S
C1769      C1770   1.418       .  A
C1769      C1774   1.420       .  A
C1770      C1771   1.389       .  A
C1770      H1779   1.080       .  S
C1771      C1772   1.393   1_545  A
C1771      H1780   1.084       .  S
C1772      C1778   1.401       .  A
C1772      C1773   1.410   1_565  A
C1773      C1775   1.404   1_545  A
C1773      C1774   1.416       .  A
C1774      H1781   1.081       .  S
C1775      C1776   1.406       .  A
C1775      H1782   1.084       .  S
C1776      C1777   1.416       .  A
C1776      H1783   1.078       .  S
C1777      C1778   1.414       .  A
C1778      H1784   1.083       .  S
C1785      C1786   1.416       .  A
C1785      C1790   1.410       .  A
C1786      C1787   1.407       .  A
C1786      H1795   1.083       .  S
C1787      C1788   1.405       .  A
C1787      H1796   1.083       .  S
C1788      C1794   1.415       .  A
C1788      C1789   1.408       .  A
C1789      C1791   1.389       .  A
C1789      C1790   1.392       .  A
C1790      H1797   1.082       .  S
C1791      C1792   1.381       .  A
C1791      H1798   1.084       .  S
C1792      C1793   1.420       .  A
C1792      H1799   1.080       .  S
C1793      C1794   1.420       .  A
C1794      H1800   1.084       .  S
