geometry optimzed in LAMMPS
_audit_creation_date              2020-11-30 
_audit_creation_method            'lammps2cif' 
_symmetry_space_group_name_H-M    'P1' 
_symmetry_Int_Tables_number       1 
_symmetry_cell_setting            triclinic 
loop_ 
_symmetry_equiv_pos_as_xyz 
  x,y,z 
_cell_length_a                    35.31378138 
_cell_length_b                    35.56113517356456 
_cell_length_c                    38.56085081885499 
_cell_angle_alpha                 90.27908015024175 
_cell_angle_beta                  89.78471184546939 
_cell_angle_gamma                 89.01926510807478 
loop_ 
_atom_site_label 
_atom_site_type_symbol 
_atom_site_fract_x 
_atom_site_fract_y 
_atom_site_fract_z 
_atom_site_charge 
In1        In  0.96278831  0.86788103  0.08912428     1.36900
C2          C  0.96085800  0.85472453  0.02154864     0.76800
O3          O  0.91108307  0.90323143  0.07634474    -0.61700
O4          O  0.94399679  0.91942841  0.11957229    -0.52600
C5          C  0.94254324  0.80978992  0.12925588     0.69400
O6          O  0.94085145  0.80885346  0.09672876    -0.47500
C7          C  0.03255880  0.89630907  0.09348485     0.74100
O8          O  0.93245063  0.86622530  0.03855895    -0.59300
O9          O  0.00359909  0.91482952  0.08465944    -0.49400
O10         O  0.98974086  0.84681140  0.03946173    -0.55700
C11         C  0.91747950  0.92784235  0.09903511     0.84300
O12         O  0.95471061  0.84022473  0.14126473    -0.57600
O13         O  0.02639935  0.86229598  0.10053394    -0.60900
In14       In  0.96521258  0.86730382  0.91624568     1.36900
C15         C  0.96115140  0.85475605  0.98368995     0.76800
O16         O  0.02857431  0.85715201  0.91994381    -0.61700
O17         O  0.00849797  0.90114108  0.88764221    -0.52600
C18         C  0.93915676  0.81146810  0.87637743     0.69400
O19         O  0.93764205  0.81012782  0.90891864    -0.47500
C20         C  0.92953334  0.93414207  0.91281782     0.74100
O21         O  0.93318393  0.86655070  0.96635660    -0.59300
O22         O  0.96008068  0.92836358  0.92867815    -0.49400
O23         O  0.99031683  0.84650464  0.96615105    -0.55700
C24         C  0.03649148  0.88568464  0.90221991     0.84300
O25         O  0.95420806  0.84068001  0.86478209    -0.57600
O26         O  0.91571098  0.90515176  0.89910288    -0.60900
In27       In  0.13610576  0.94989528  0.09191542     1.36900
C28         C  0.14911152  0.94194526  0.02427395     0.76800
O29         O  0.10072545  0.89740177  0.10157910    -0.61700
O30         O  0.07326050  0.94818002  0.08680652    -0.52600
C31         C  0.19173739  0.92833088  0.13543069     0.69400
O32         O  0.19469348  0.92616756  0.10297910    -0.47500
C33         C  0.11654712  0.02186887  0.10124859     0.74100
O34         O  0.16059347  0.96982778  0.04132149    -0.59300
O35         O  0.10505361  0.99621428  0.12091531    -0.49400
O36         O  0.13448752  0.91648136  0.04229228    -0.55700
C37         C  0.06988726  0.91406766  0.09435073     0.84300
O38         O  0.16074374  0.94233312  0.14571414    -0.57600
O39         O  0.14121827  0.01140146  0.07939213    -0.60900
In40       In  0.13356998  0.94557029  0.91870312     1.36900
C41         C  0.14824161  0.94125061  0.98626737     0.76800
O42         O  0.13845213  0.00698389  0.90247697    -0.61700
O43         O  0.09046026  0.99013540  0.93133189    -0.52600
C44         C  0.19074743  0.92595090  0.87636843     0.69400
O45         O  0.19259377  0.92196513  0.90871604    -0.47500
C46         C  0.07366998  0.90357934  0.90340961     0.74100
O47         O  0.15945499  0.96818679  0.96791571    -0.59300
O48         O  0.07930960  0.93514127  0.88991147    -0.49400
O49         O  0.13237241  0.91537458  0.96966100    -0.55700
C50         C  0.10697096  0.01632628  0.91586808     0.84300
O51         O  0.16000591  0.94002777  0.86592991    -0.57600
O52         O  0.10047813  0.89159629  0.92201110    -0.60900
In53       In  0.05421634  0.11886825  0.08635709     1.36900
C54         C  0.05722204  0.13274529  0.01863232     0.76800
O55         O  0.10696993  0.08337429  0.07777437    -0.61700
O56         O  0.06961287  0.06772930  0.11811381    -0.52600
C57         C  0.07503743  0.17601254  0.12764453     0.69400
O58         O  0.07873214  0.17675870  0.09522680    -0.47500
C59         C  0.98492336  0.09014658  0.08921403     0.74100
O60         O  0.08477200  0.11937473  0.03544579    -0.59300
O61         O  0.01380063  0.07227125  0.07873335    -0.49400
O62         O  0.02855058  0.14155443  0.03678114    -0.55700
C63         C  0.09837835  0.05924737  0.10012620     0.84300
O64         O  0.05944948  0.14688563  0.13872307    -0.57600
O65         O  0.99092788  0.12368839  0.09839707    -0.60900
In66       In  0.05401648  0.12142581  0.91282296     1.36900
C67         C  0.05757115  0.13396472  0.98062535     0.76800
O68         O  0.99095262  0.12944304  0.91947242    -0.61700
O69         O  0.01068198  0.08994907  0.88182212    -0.52600
C70         C  0.07957271  0.17786657  0.87250495     0.69400
O71         O  0.08167640  0.17809237  0.90507501    -0.47500
C72         C  0.08951933  0.05407761  0.91373172     0.74100
O73         O  0.08560629  0.12212997  0.96311445    -0.59300
O74         O  0.05737002  0.06061220  0.92657023    -0.49400
O75         O  0.02891807  0.14328997  0.96300130    -0.55700
C76         C  0.98287728  0.10324830  0.89875637     0.84300
O77         O  0.06408256  0.14901576  0.86041645    -0.57600
O78         O  0.10430480  0.08214497  0.89935876    -0.60900
In79       In  0.88153050  0.03737850  0.08564686     1.36900
C80         C  0.87039662  0.04489234  0.01740897     0.76800
O81         O  0.91710204  0.08866597  0.09830080    -0.61700
O82         O  0.94425232  0.03878969  0.07988300    -0.52600
C83         C  0.82536620  0.06110812  0.12851781     0.69400
O84         O  0.82486001  0.06633697  0.09626399    -0.47500
C85         C  0.89990236  0.96557519  0.09791230     0.74100
O86         O  0.85658692  0.01816378  0.03447903    -0.59300
O87         O  0.91167878  0.99230686  0.11625336    -0.49400
O88         O  0.88695315  0.06908264  0.03554756    -0.55700
C89         C  0.94774722  0.07235322  0.08954881     0.84300
O90         O  0.85442466  0.04370786  0.13882697    -0.57600
O91         O  0.87571520  0.97505734  0.07542794    -0.60900
In92       In  0.88548508  0.04291795  0.91125601     1.36900
C93         C  0.87106380  0.04606000  0.97926878     0.76800
O94         O  0.88085312  0.98023744  0.89806978    -0.61700
O95         O  0.93028598  0.99992011  0.92262675    -0.52600
C96         C  0.82787381  0.06449393  0.86940634     0.69400
O97         O  0.82601185  0.06525710  0.90199770    -0.47500
C98         C  0.94557434  0.08547849  0.89869511     0.74100
O99         O  0.85958457  0.01954745  0.96038040    -0.59300
O100        O  0.93912141  0.05583417  0.88179625    -0.49400
O101        O  0.88665332  0.07227148  0.96296679    -0.55700
C102        C  0.91282906  0.97218585  0.91087724     0.84300
O103        O  0.85913968  0.05220141  0.85788847    -0.57600
O104        O  0.91935783  0.09552738  0.91917564    -0.60900
In105      In  0.37975842  0.45362872  0.91393440     1.36900
C106        C  0.36630875  0.44777077  0.98186311     0.76800
O107        O  0.41864420  0.40299292  0.90224700    -0.61700
O108        O  0.44200004  0.45193068  0.92440963    -0.52600
C109        C  0.32501400  0.42745186  0.87172334     0.69400
O110        O  0.32255148  0.42740054  0.90427250    -0.47500
C111        C  0.39653864  0.52528801  0.90185536     0.74100
O112        O  0.38062950  0.42130982  0.96401920    -0.59300
O113        O  0.41065428  0.49842937  0.88439117    -0.49400
O114        O  0.35562686  0.47597950  0.96453980    -0.55700
C115        C  0.44776551  0.41887395  0.91375477     0.84300
O116        O  0.35522085  0.44138429  0.86057498    -0.57600
O117        O  0.37003094  0.51611656  0.92192461    -0.60900
In118      In  0.37894905  0.44938292  0.08819909     1.36900
C119        C  0.36616751  0.44720400  0.02000778     0.76800
O120        O  0.37237930  0.51233507  0.10157999    -0.61700
O121        O  0.42517904  0.49057556  0.08382266    -0.52600
C122        C  0.32148489  0.42648759  0.12888210     0.69400
O123        O  0.31895726  0.42822656  0.09641075    -0.47500
C124        C  0.44073017  0.40701442  0.10074518     0.74100
O125        O  0.37796522  0.41910860  0.03688512    -0.59300
O126        O  0.42981344  0.43315390  0.12076818    -0.49400
O127        O  0.35787357  0.47572591  0.03833122    -0.55700
C128        C  0.40649965  0.51887692  0.09400137     0.84300
O129        O  0.35280038  0.43704209  0.14041265    -0.57600
O130        O  0.41805110  0.39996729  0.07647088    -0.60900
In131      In  0.45669973  0.62145537  0.91993199     1.36900
C132        C  0.45291180  0.63461708  0.98769413     0.76800
O133        O  0.40231161  0.58857588  0.92302046    -0.61700
O134        O  0.44563557  0.56859453  0.88929476    -0.52600
C135        C  0.44119091  0.68041058  0.87920009     0.69400
O136        O  0.43749297  0.68199179  0.91165491    -0.47500
C137        C  0.52705133  0.59369553  0.91879882     0.74100
O138        O  0.42492626  0.62315716  0.97065039    -0.59300
O139        O  0.49993883  0.57818627  0.93400264    -0.49400
O140        O  0.48145628  0.64276138  0.96967709    -0.58900
C141        C  0.41418430  0.56243854  0.90341703     0.84300
O142        O  0.45258197  0.64898403  0.86791481    -0.57600
O143        O  0.51859852  0.62422522  0.90390915    -0.60900
In144      In  0.46098568  0.62123812  0.09320676     1.36900
C145        C  0.45395851  0.63426641  0.02565639     0.76800
O146        O  0.52297742  0.62838933  0.08220587    -0.61700
O147        O  0.50709929  0.59033856  0.12183867    -0.52600
C148        C  0.44006798  0.67719116  0.13627166     0.69400
O149        O  0.43657881  0.67905411  0.10389890    -0.47500
C150        C  0.42447344  0.55583334  0.09551986     0.74100
O151        O  0.42669055  0.62328221  0.04397690    -0.59300
O152        O  0.45861883  0.55913119  0.08700958    -0.49400
O153        O  0.48364256  0.64137852  0.04227269    -0.55700
C154        C  0.53334087  0.60350696  0.10350199     0.84300
O155        O  0.45508480  0.64704517  0.14672199    -0.57600
O156        O  0.40812272  0.58633891  0.10412506    -0.60900
In157      In  0.63192773  0.54091230  0.91957513     1.36900
C158        C  0.64741180  0.54644251  0.98658824     0.76800
O159        O  0.59327030  0.58961819  0.90333972    -0.61700
O160        O  0.57125331  0.54620668  0.93461907    -0.52600
C161        C  0.68578977  0.56434933  0.87621646     0.69400
O162        O  0.68763434  0.56942075  0.90846706    -0.47500
C163        C  0.61457971  0.46997909  0.90590315     0.74100
O164        O  0.63714112  0.57445013  0.96878319    -0.59300
O165        O  0.59775228  0.49751300  0.89201049    -0.49400
O166        O  0.65303622  0.51651208  0.96957248    -0.55700
C167        C  0.56493085  0.57645888  0.91884330     0.84300
O168        O  0.65686267  0.54717070  0.86646225    -0.57600
O169        O  0.64310481  0.47840566  0.92376918    -0.60900
In170      In  0.63346008  0.54527132  0.09187447     1.36900
C171        C  0.64799380  0.54738036  0.02451008     0.76800
O172        O  0.63849770  0.48285296  0.10596892    -0.61700
O173        O  0.58825885  0.50379122  0.08249201    -0.52600
C174        C  0.69040401  0.56687050  0.13307452     0.69400
O175        O  0.69277699  0.56632895  0.10054040    -0.47500
C176        C  0.57166254  0.58717163  0.10334468     0.74100
O177        O  0.63773249  0.57615988  0.04154729    -0.59300
O178        O  0.58100349  0.56004133  0.12253567    -0.49400
O179        O  0.65458263  0.51841148  0.04243737    -0.55700
C180        C  0.60566712  0.47588667  0.09488854     0.84300
O181        O  0.65919072  0.55583449  0.14466126    -0.57600
O182        O  0.59606253  0.59571226  0.08095278    -0.60900
In183      In  0.55618675  0.37281699  0.91949331     1.36900
C184        C  0.55972979  0.36036674  0.98705896     0.76800
O185        O  0.60898699  0.40697866  0.92644533    -0.61700
O186        O  0.56887930  0.42485902  0.88898494    -0.52600
C187        C  0.57675434  0.31319881  0.88038349     0.69400
O188        O  0.57779918  0.31288880  0.91294829    -0.47500
C189        C  0.48563469  0.40117958  0.91557133     0.74100
O190        O  0.58731441  0.37253805  0.96992693    -0.59300
O191        O  0.51277754  0.41802965  0.92935192    -0.49400
O192        O  0.53117675  0.35175600  0.96930087    -0.55700
C193        C  0.59828667  0.43234917  0.90584238     0.84300
O194        O  0.56504816  0.34382082  0.86781746    -0.57600
O195        O  0.49399544  0.36877112  0.90401184    -0.60900
In196      In  0.55242032  0.37286722  0.09239411     1.36900
C197        C  0.55939467  0.36037503  0.02492059     0.76800
O198        O  0.49043660  0.36586707  0.08055103    -0.61700
O199        O  0.50458586  0.40219280  0.12200542    -0.52600
C200        C  0.57786470  0.31562748  0.13171900     0.69400
O201        O  0.57833270  0.31485379  0.09915567    -0.47500
C202        C  0.58789624  0.43883057  0.09540314     0.74100
O203        O  0.58524748  0.37518995  0.04253109    -0.59300
O204        O  0.55464221  0.43486863  0.08465860    -0.49400
O205        O  0.53156460  0.34901338  0.04221686    -0.55700
C206        C  0.47906623  0.39012446  0.10222943     0.84300
O207        O  0.56404272  0.34557963  0.14440275    -0.57600
O208        O  0.60374884  0.40879778  0.10558683    -0.60900
In209      In  0.88405500  0.94472270  0.59176053     1.36900
C210        C  0.87008796  0.93770246  0.52452050     0.76800
O211        O  0.87552770  0.00701777  0.58295469    -0.61700
O212        O  0.91526909  0.98948398  0.62092715    -0.52600
C213        C  0.82823787  0.92041421  0.63310915     0.69400
O214        O  0.82977442  0.91302414  0.60120480    -0.47500
C215        C  0.95240040  0.91151284  0.59361650     0.74100
O216        O  0.85722593  0.96500463  0.54226237    -0.59300
O217        O  0.94473046  0.94087091  0.57694502    -0.49400
O218        O  0.88654956  0.91222867  0.54177733    -0.55700
C219        C  0.90156744  0.01621880  0.60344369     0.84300
O220        O  0.85524915  0.93985099  0.64385399    -0.57600
O221        O  0.92473214  0.89806321  0.61003326    -0.60900
In222      In  0.88258319  0.94164539  0.41834774     1.36900
C223        C  0.87017046  0.93754592  0.48648233     0.76800
O224        O  0.93464845  0.92699316  0.38673396    -0.61700
O225        O  0.92066643  0.89130377  0.42860785    -0.52600
C226        C  0.82639243  0.92020680  0.37577274     0.69400
O227        O  0.82591077  0.91454852  0.40789997    -0.47500
C228        C  0.90926234  0.01188856  0.41555775     0.74100
O229        O  0.85893799  0.96524419  0.46870309    -0.59300
O230        O  0.92964966  0.98274154  0.41773014    -0.49400
O231        O  0.88514491  0.91109881  0.46915991    -0.55700
C232        C  0.94463104  0.89994182  0.40581397     0.84300
O233        O  0.85512684  0.93729091  0.36548716    -0.57600
O234        O  0.87413316  0.00571479  0.41469533    -0.60900
In235      In  0.05639586  0.86809503  0.41583359     1.36900
C236        C  0.06430266  0.85670410  0.48372349     0.76800
O237        O  0.10753805  0.90493469  0.40247716    -0.61700
O238        O  0.05787909  0.93059857  0.42308343    -0.52600
C239        C  0.07733182  0.80967721  0.37455081     0.69400
O240        O  0.08151079  0.80964116  0.40692655    -0.47500
C241        C  0.98331097  0.88414269  0.40537343     0.74100
O242        O  0.09067959  0.86913076  0.46511932    -0.59300
O243        O  0.99436975  0.85975572  0.42683607    -0.49400
O244        O  0.03515793  0.84735314  0.46728046    -0.55700
C245        C  0.09128883  0.93498991  0.41267067     0.84300
O246        O  0.06320766  0.83983882  0.36307019    -0.57600
O247        O  0.00924265  0.89755467  0.38682696    -0.60900
In248      In  0.06237003  0.87009077  0.58956950     1.36900
C249        C  0.06569429  0.85693350  0.52173130     0.76800
O250        O  0.00181241  0.86730189  0.61027013    -0.61700
O251        O  0.01610972  0.90967354  0.57421464    -0.52600
C252        C  0.07992237  0.81153442  0.63021018     0.69400
O253        O  0.08313844  0.80942203  0.59773583    -0.47500
C254        C  0.10422312  0.93020687  0.60521990     0.74100
O255        O  0.09288545  0.87073144  0.53831475    -0.59300
O256        O  0.07153008  0.92520846  0.61716500    -0.49400
O257        O  0.03822521  0.84670826  0.54023485    -0.55700
C258        C  0.99089974  0.89543543  0.59290698     0.84300
O259        O  0.06785459  0.84289692  0.64108256    -0.57600
O260        O  0.11748460  0.90264168  0.58816894    -0.60900
In261      In  0.13606216  0.04280839  0.41838284     1.36900
C262        C  0.15114696  0.04489852  0.48620799     0.76800
O263        O  0.09611967  0.09055236  0.43201580    -0.61700
O264        O  0.08503411  0.05928828  0.38634933    -0.52600
C265        C  0.19199920  0.06836311  0.37680815     0.69400
O266        O  0.19315030  0.07030209  0.40934456    -0.47500
C267        C  0.10873081  0.97254145  0.41369154     0.74100
O268        O  0.15966435  0.01672438  0.46746376    -0.59300
O269        O  0.08995561  0.00083806  0.42388474    -0.49400
O270        O  0.13800311  0.07275128  0.46983404    -0.55700
C271        C  0.07357683  0.08400409  0.40760441     0.84300
O272        O  0.16288518  0.05255545  0.36558750    -0.57600
O273        O  0.14264826  0.97955549  0.40560991    -0.60900
In274      In  0.13942364  0.03864953  0.59238179     1.36900
C275        C  0.15209167  0.04414328  0.52436796     0.76800
O276        O  0.15071375  0.97554640  0.58857347    -0.61700
O277        O  0.10603000  0.99514385  0.62097758    -0.52600
C278        C  0.19579745  0.06659389  0.63211063     0.69400
O279        O  0.19689161  0.06574604  0.59949885    -0.47500
C280        C  0.07074979  0.07232429  0.59335313     0.74100
O281        O  0.16011768  0.01477403  0.54122504    -0.59300
O282        O  0.07903128  0.04360480  0.57563567    -0.49400
O283        O  0.14108950  0.07175935  0.54273740    -0.55700
C284        C  0.12198474  0.96738652  0.60635066     0.84300
O285        O  0.16608271  0.05286017  0.64457160    -0.57600
O286        O  0.09796172  0.08499369  0.61080845    -0.60900
In287      In  0.96183953  0.11572585  0.41723643     1.36900
C288        C  0.95620642  0.12848800  0.48531683     0.76800
O289        O  0.90824798  0.08018162  0.41370218    -0.61700
O290        O  0.96178004  0.05280623  0.41643634    -0.52600
C291        C  0.94031478  0.17085527  0.37361960     0.69400
O292        O  0.94069019  0.17492457  0.40599599    -0.47500
C293        C  0.03493237  0.09962008  0.40731048     0.74100
O294        O  0.98511171  0.13676329  0.46792913    -0.59300
O295        O  0.00964482  0.08768686  0.38723715    -0.49400
O296        O  0.92898449  0.11645080  0.46757321    -0.55700
C297        C  0.92645998  0.04935358  0.41493236     0.84300
O298        O  0.95084549  0.13872622  0.36349358    -0.57600
O299        O  0.02324293  0.12240831  0.43020656    -0.60900
In300      In  0.96024932  0.11422318  0.59094309     1.36900
C301        C  0.95593065  0.12857526  0.52338786     0.76800
O302        O  0.02172892  0.11791116  0.60919717    -0.61700
O303        O  0.00610735  0.07295331  0.57636044    -0.52600
C304        C  0.93871086  0.17225965  0.63206837     0.69400
O305        O  0.93976494  0.17411377  0.59949987    -0.47500
C306        C  0.91865261  0.05357335  0.60309368     0.74100
O307        O  0.98448485  0.13714203  0.54121144    -0.59300
O308        O  0.94776124  0.06111826  0.62038182    -0.49400
O309        O  0.92845343  0.11626081  0.54063095    -0.55700
C310        C  0.03206628  0.08842985  0.59314451     0.84300
O311        O  0.94871098  0.14071774  0.64383083    -0.57600
O312        O  0.90853565  0.07885864  0.58220249    -0.60900
C313        C  0.23513355  0.37713335  0.16869407     0.85700
C314        C  0.26251641  0.35455257  0.19222968    -0.54600
C315        C  0.29347106  0.37356285  0.20412515     0.08600
C316        C  0.29345951  0.41463476  0.19145585     0.19500
C317        C  0.22447371  0.41108213  0.19205121    -0.55300
C318        C  0.25478518  0.43106831  0.20326342     0.08700
C319        C  0.26024830  0.39359961  0.13990439    -0.54800
C320        C  0.29113309  0.41227253  0.15174966     0.09300
H321        H  0.25705689  0.32567248  0.19961468     0.13800
H322        H  0.31801475  0.43112602  0.19993930    -0.00500
H323        H  0.19632799  0.41758306  0.20162018     0.14100
H324        H  0.25465967  0.38974681  0.11241265     0.13900
C325        C  0.12602614  0.25994312  0.16911397     0.85700
C326        C  0.10827928  0.23651566  0.13983598    -0.54600
C327        C  0.08954869  0.20550884  0.15107781     0.08600
C328        C  0.08896464  0.20119238  0.19066423     0.19500
C329        C  0.09318658  0.26941601  0.19435754    -0.55300
C330        C  0.07339017  0.23898324  0.20490424     0.08700
C331        C  0.14991233  0.23137379  0.19025896    -0.54800
C332        C  0.13094247  0.20022549  0.20142572     0.09300
H333        H  0.11169648  0.24307337  0.11255294     0.13800
H334        H  0.07266645  0.17644720  0.19881310    -0.00500
H335        H  0.08688791  0.29713954  0.20476476     0.14100
H336        H  0.17941448  0.23595363  0.19655377     0.13900
C337        C  0.78044404  0.37365640  0.33053147     0.85700
C338        C  0.75408231  0.34919531  0.30896952    -0.54600
C339        C  0.72208208  0.36671768  0.29806176     0.08600
C340        C  0.71869916  0.40828199  0.30935328     0.19500
C341        C  0.78755711  0.40701462  0.30564701    -0.55300
C342        C  0.75520755  0.42601754  0.29513775     0.08700
C343        C  0.75592793  0.39051182  0.35986770    -0.54800
C344        C  0.72340153  0.40783301  0.34902736     0.09300
H345        H  0.76087605  0.32022424  0.30167525     0.13800
H346        H  0.69208435  0.42253321  0.30117412    -0.00500
H347        H  0.81494996  0.41395286  0.29512271     0.14100
H348        H  0.76310266  0.38759974  0.38702809     0.13900
C349        C  0.89121474  0.25611557  0.33155006     0.85700
C350        C  0.90906174  0.23256946  0.36071581    -0.54600
C351        C  0.92721442  0.20055152  0.34959183     0.08600
C352        C  0.92813715  0.19581093  0.30995418     0.19500
C353        C  0.92382776  0.26421760  0.30637649    -0.55300
C354        C  0.94365583  0.23313981  0.29574914     0.08700
C355        C  0.86712708  0.22807913  0.31044969    -0.54800
C356        C  0.88610761  0.19608259  0.29927016     0.09300
H357        H  0.90587880  0.23966969  0.38794869     0.13800
H358        H  0.94455577  0.17045514  0.30192836    -0.00500
H359        H  0.92995261  0.29158270  0.29583001     0.14100
H360        H  0.83751084  0.23336304  0.30463562     0.13900
C361        C  0.23916455  0.60698101  0.33657956     0.85700
C362        C  0.26693660  0.63044945  0.31489927    -0.54600
C363        C  0.29836583  0.61128297  0.30251194     0.08600
C364        C  0.29820851  0.56935065  0.31256392     0.19500
C365        C  0.22926611  0.57526130  0.31128600    -0.55300
C366        C  0.25964616  0.55508839  0.29941640     0.08700
C367        C  0.26378303  0.58839684  0.36473721    -0.54800
C368        C  0.29521665  0.56981615  0.35235826     0.09300
H369        H  0.26174778  0.66003135  0.30946912     0.13800
H370        H  0.32293912  0.55254000  0.30357812    -0.00500
H371        H  0.20131056  0.57041675  0.30099559     0.14100
H372        H  0.25793863  0.59155956  0.39230669     0.13900
C373        C  0.12504013  0.72074470  0.33598177     0.85700
C374        C  0.10815764  0.74676343  0.36423388    -0.54600
C375        C  0.08922517  0.77765516  0.35189791     0.08600
C376        C  0.08661747  0.77875826  0.31208422     0.19500
C377        C  0.09143252  0.71017924  0.31280733    -0.55300
C378        C  0.07100217  0.74012295  0.30077478     0.08700
C379        C  0.14778177  0.74696643  0.31200991    -0.54800
C380        C  0.12819673  0.77802067  0.29975465     0.09300
H381        H  0.11256231  0.74210515  0.39176706     0.13800
H382        H  0.06953164  0.80314892  0.30331265    -0.00500
H383        H  0.08580581  0.68197866  0.30370919     0.14100
H384        H  0.17727874  0.74131320  0.30543220     0.13900
C385        C  0.77902067  0.61245893  0.17152074     0.85700
C386        C  0.75393104  0.63419526  0.19810667    -0.54600
C387        C  0.72371917  0.61472801  0.21013715     0.08600
C388        C  0.72146681  0.57483530  0.19538944     0.19500
C389        C  0.79029034  0.57631547  0.19145066    -0.55300
C390        C  0.76028784  0.55647086  0.20390299     0.08700
C391        C  0.75171916  0.59889337  0.14334783    -0.54800
C392        C  0.72137729  0.57978763  0.15571922     0.09300
H393        H  0.75911996  0.66295777  0.20616209     0.13800
H394        H  0.69678767  0.55930634  0.20555785    -0.00500
H395        H  0.81909760  0.56753926  0.19651450     0.14100
H396        H  0.75561379  0.60486318  0.11600292     0.13900
C397        C  0.89363049  0.72359288  0.16820613     0.85700
C398        C  0.91055106  0.74834262  0.13953571    -0.54600
C399        C  0.92995403  0.77866230  0.15165616     0.08600
C400        C  0.93249523  0.78069677  0.19136355     0.19500
C401        C  0.92734442  0.71236589  0.19141562    -0.55300
C402        C  0.94793538  0.74194302  0.20300391     0.08700
C403        C  0.87118614  0.75135981  0.19182139    -0.54800
C404        C  0.89109869  0.78157089  0.20363762     0.09300
H405        H  0.90565755  0.74347538  0.11209819     0.13800
H406        H  0.94931617  0.80478982  0.20046380    -0.00500
H407        H  0.93300727  0.68423887  0.20080211     0.14100
H408        H  0.84170099  0.74731373  0.19880349     0.13900
C409        C  0.39050693  0.76369854  0.17645692     0.85700
C410        C  0.36443253  0.73739583  0.19682104    -0.54600
C411        C  0.38179377  0.70573094  0.20909220     0.08600
C412        C  0.42418707  0.70263679  0.19962931     0.19500
C413        C  0.42270733  0.77092910  0.20273587    -0.55300
C414        C  0.44107355  0.73899508  0.21425696     0.08700
C415        C  0.40886147  0.73910735  0.14807155    -0.54800
C416        C  0.42575970  0.70693659  0.15995028     0.09300
H417        H  0.33493541  0.74407907  0.20242020     0.13800
H418        H  0.43839447  0.67653580  0.20893382    -0.00500
H419        H  0.42969501  0.79836228  0.21285990     0.14100
H420        H  0.40722831  0.74590717  0.12074938     0.13900
C421        C  0.27814078  0.87853308  0.17613436     0.85700
C422        C  0.25411235  0.89726205  0.14767292    -0.54600
C423        C  0.22124597  0.91387531  0.15931939     0.08600
C424        C  0.21599998  0.91206240  0.19898918     0.19500
C425        C  0.28475947  0.91012262  0.20305150    -0.55300
C426        C  0.25250099  0.92873358  0.21403173     0.08700
C427        C  0.25081706  0.85268924  0.19550386    -0.54800
C428        C  0.21871359  0.86978409  0.20782504     0.09300
H429        H  0.26170826  0.89593862  0.12042039     0.13800
H430        H  0.18965789  0.92624886  0.20841736    -0.00500
H431        H  0.31187031  0.91680783  0.21415163     0.14100
H432        H  0.25731117  0.82330795  0.20069522     0.13900
C433        C  0.39176460  0.22888504  0.33656133     0.85700
C434        C  0.36557732  0.25602855  0.31663738    -0.54600
C435        C  0.38234740  0.28696770  0.30368215     0.08600
C436        C  0.42496844  0.28888733  0.31254623     0.19500
C437        C  0.42385924  0.22049718  0.30977643    -0.55300
C438        C  0.44209346  0.25185494  0.29778830     0.08700
C439        C  0.41034300  0.25297601  0.36458114    -0.54800
C440        C  0.42715871  0.28456914  0.35235085     0.09300
H441        H  0.33610906  0.25004035  0.31121458     0.13800
H442        H  0.43894128  0.31454577  0.30294097    -0.00500
H443        H  0.43078039  0.19278908  0.29967986     0.14100
H444        H  0.40900656  0.24624407  0.39192515     0.13900
C445        C  0.27983044  0.11593595  0.33741689     0.85700
C446        C  0.25266122  0.10224269  0.36583382    -0.54600
C447        C  0.22204829  0.08329764  0.35368970     0.08600
C448        C  0.22166315  0.07907811  0.31379844     0.19500
C449        C  0.29050787  0.07989689  0.31644157    -0.55300
C450        C  0.26009596  0.06042630  0.30426841     0.08700
C451        C  0.25467661  0.13818687  0.31175589    -0.54800
C452        C  0.22432789  0.11920283  0.29943922     0.09300
H453        H  0.25720264  0.10748553  0.39325155     0.13800
H454        H  0.19695718  0.06363285  0.30360520    -0.00500
H455        H  0.31910956  0.07094730  0.31038261     0.14100
H456        H  0.26080687  0.16655032  0.30349193     0.13900
C457        C  0.62493544  0.22484204  0.16675533     0.85700
C458        C  0.64877080  0.24868039  0.19185202    -0.54600
C459        C  0.63060307  0.27972984  0.20522266     0.08600
C460        C  0.58957812  0.28395038  0.19298842     0.19500
C461        C  0.58986631  0.21549311  0.18901780    -0.55300
C462        C  0.57111512  0.24625998  0.20240674     0.08700
C463        C  0.61000772  0.25285360  0.13950380    -0.54800
C464        C  0.59222277  0.28405616  0.15316831     0.09300
H465        H  0.67792553  0.24178772  0.19830243     0.13800
H466        H  0.57479094  0.30913619  0.20397702    -0.00500
H467        H  0.58128366  0.18744491  0.19561460     0.14100
H468        H  0.61393227  0.24867236  0.11176068     0.13900
C469        C  0.73661702  0.10809770  0.16907296     0.85700
C470        C  0.76413083  0.09457901  0.14056155    -0.54600
C471        C  0.79481496  0.07474193  0.15226248     0.08600
C472        C  0.79504340  0.06949094  0.19209062     0.19500
C473        C  0.72613396  0.07178737  0.18863543    -0.55300
C474        C  0.75650506  0.05151430  0.20112145     0.08700
C475        C  0.76106321  0.12901865  0.19589383    -0.54800
C476        C  0.79193876  0.10940125  0.20736353     0.09300
H477        H  0.75988867  0.10088231  0.11335830     0.13800
H478        H  0.82010349  0.05365577  0.20197848    -0.00500
H479        H  0.69762571  0.06333271  0.19366689     0.14100
H480        H  0.75450132  0.15733294  0.20504386     0.13900
C481        C  0.62758685  0.75938236  0.33727722     0.85700
C482        C  0.64822456  0.73405333  0.31025698    -0.54600
C483        C  0.62776095  0.70442359  0.29856055     0.08600
C484        C  0.58787834  0.70306903  0.31401531     0.19500
C485        C  0.59115843  0.77135866  0.31809853    -0.55300
C486        C  0.57040267  0.74212746  0.30606448     0.08700
C487        C  0.61412718  0.73237983  0.36569458    -0.54800
C488        C  0.59383813  0.70269006  0.35354019     0.09300
H489        H  0.67712333  0.73857602  0.30168801     0.13800
H490        H  0.57126675  0.67909824  0.30403233    -0.00500
H491        H  0.58309469  0.80006643  0.31239556     0.14100
H492        H  0.62110902  0.73589550  0.39290654     0.13900
C493        C  0.74098547  0.87211420  0.33402545     0.85700
C494        C  0.76511305  0.88887798  0.36313981    -0.54600
C495        C  0.79679083  0.90659723  0.35192476     0.08600
C496        C  0.80124505  0.90716846  0.31226191     0.19500
C497        C  0.73255941  0.90553860  0.30911127    -0.55300
C498        C  0.76418725  0.92468600  0.29805591     0.08700
C499        C  0.76835866  0.84784514  0.31204930    -0.54800
C500        C  0.79963318  0.86568190  0.30083969     0.09300
H501        H  0.75845242  0.88549724  0.39039914     0.13800
H502        H  0.82734512  0.92156264  0.30426925    -0.00500
H503        H  0.70478164  0.91189634  0.29865692     0.14100
H504        H  0.76256858  0.81909999  0.30438342     0.13900
C505        C  0.25251141  0.61751713  0.67244180     0.85700
C506        C  0.27712265  0.60185265  0.64287636    -0.54600
C507        C  0.30672103  0.57985235  0.65376581     0.08600
C508        C  0.30974663  0.57574059  0.69326806     0.19500
C509        C  0.24103209  0.58270767  0.69403005    -0.55300
C510        C  0.27124090  0.56042726  0.70488292     0.08700
C511        C  0.28002677  0.63692275  0.69732450    -0.54800
C512        C  0.30992647  0.61606064  0.70769213     0.09300
H513        H  0.27188956  0.60815640  0.61571524     0.13800
H514        H  0.33449159  0.55825327  0.70095243    -0.00500
H515        H  0.21206505  0.57744125  0.70188655     0.14100
H516        H  0.27506675  0.66437752  0.70879371     0.13900
C517        C  0.13471691  0.73328559  0.67716225     0.85700
C518        C  0.15463269  0.76769503  0.69221721    -0.54600
C519        C  0.13194235  0.79570757  0.70331438     0.08600
C520        C  0.09036028  0.79036636  0.69387583     0.19500
C521        C  0.10329429  0.72414930  0.70366552    -0.55300
C522        C  0.07902818  0.75374134  0.71153253     0.08700
C523        C  0.11374296  0.75072771  0.64581750    -0.54800
C524        C  0.09154264  0.78165423  0.65465585     0.09300
H525        H  0.18483309  0.77175447  0.69309006     0.13800
H526        H  0.07193696  0.81490193  0.69991351    -0.00500
H527        H  0.10070911  0.69665075  0.71531774     0.14100
H528        H  0.11978579  0.74265142  0.61921825     0.13900
C529        C  0.76732176  0.61356244  0.82813578     0.85700
C530        C  0.74321120  0.60159609  0.85980258    -0.54600
C531        C  0.71466077  0.57733135  0.85142927     0.08600
C532        C  0.71238510  0.56786499  0.81239891     0.19500
C533        C  0.78036157  0.57609110  0.81137909    -0.55300
C534        C  0.75198812  0.55241321  0.80251219     0.08700
C535        C  0.73631862  0.63038317  0.80471011    -0.54800
C536        C  0.70906938  0.60622481  0.79507368     0.09300
H537        H  0.74524430  0.61367317  0.88557661     0.13800
H538        H  0.68885473  0.54909048  0.80513930    -0.00500
H539        H  0.81007420  0.56903190  0.80732926     0.14100
H540        H  0.73562303  0.65963118  0.79666748     0.13900
C541        C  0.88779990  0.72923005  0.83079370     0.85700
C542        C  0.86957218  0.76005674  0.80813689    -0.54600
C543        C  0.89296511  0.78764278  0.79820894     0.08600
C544        C  0.93234274  0.78429312  0.81365696     0.19500
C545        C  0.92517892  0.71672119  0.81305936    -0.55300
C546        C  0.94820390  0.74512472  0.80310444     0.08700
C547        C  0.90126426  0.75308694  0.86230568    -0.54800
C548        C  0.92492465  0.78189791  0.85293408     0.09300
H549        H  0.83990923  0.76010296  0.80052308     0.13800
H550        H  0.95014799  0.80814681  0.80559520    -0.00500
H551        H  0.93282917  0.68726222  0.81019430     0.14100
H552        H  0.89086641  0.75069207  0.88866953     0.13900
C553        C  0.23757358  0.37889641  0.83309468     0.85700
C554        C  0.26369597  0.39498830  0.86117282    -0.54600
C555        C  0.29509452  0.41229064  0.84866936     0.08600
C556        C  0.29695649  0.41312781  0.80867835     0.19500
C557        C  0.22794186  0.41276894  0.80940724    -0.55300
C558        C  0.25881411  0.43105068  0.79683952     0.08700
C559        C  0.26343743  0.35425752  0.80960448    -0.54800
C560        C  0.29459912  0.37180152  0.79733300     0.09300
H561        H  0.25815832  0.39196450  0.88875926     0.13800
H562        H  0.32231493  0.42731037  0.79819864    -0.00500
H563        H  0.19975568  0.42122188  0.80197246     0.14100
H564        H  0.25739344  0.32530944  0.80289120     0.13900
C565        C  0.12655189  0.26707641  0.83627760     0.85700
C566        C  0.15424997  0.24252825  0.81512232    -0.54600
C567        C  0.13958431  0.21087884  0.80167453     0.08600
C568        C  0.09730498  0.20568486  0.81050023     0.19500
C569        C  0.09395126  0.27411373  0.81000648    -0.55300
C570        C  0.07776420  0.24197017  0.79717729     0.08700
C571        C  0.10965267  0.24065902  0.86365727    -0.54800
C572        C  0.09478591  0.20834944  0.85037324     0.09300
H573        H  0.18332887  0.25028201  0.80990684     0.13800
H574        H  0.08528351  0.17940598  0.79992638    -0.00500
H575        H  0.08534132  0.30146290  0.80048541     0.14100
H576        H  0.11030651  0.24667907  0.89123326     0.13900
C577        C  0.77916035  0.37058295  0.67543693     0.85700
C578        C  0.75515880  0.39055274  0.64817265    -0.54600
C579        C  0.72259267  0.40653866  0.66058413     0.08600
C580        C  0.71723887  0.40231183  0.70023455     0.19500
C581        C  0.78611961  0.40065100  0.70372205    -0.55300
C582        C  0.75366049  0.41795489  0.71618916     0.08700
C583        C  0.75235083  0.34335801  0.69385801    -0.54800
C584        C  0.72028705  0.35964160  0.70725207     0.09300
H585        H  0.76277231  0.39071835  0.62091938     0.13800
H586        H  0.69091478  0.41591380  0.71044216    -0.00500
H587        H  0.81380561  0.40778350  0.71347034     0.14100
H588        H  0.75932937  0.31383134  0.69785283     0.13900
C589        C  0.89565601  0.26467254  0.66770149     0.85700
C590        C  0.86994266  0.24191053  0.69207762    -0.54600
C591        C  0.88628272  0.21036492  0.70598461     0.08600
C592        C  0.92765944  0.20441124  0.69438873     0.19500
C593        C  0.93019073  0.27290926  0.69061915    -0.55300
C594        C  0.94726039  0.24162635  0.70433087     0.08700
C595        C  0.91091893  0.23636629  0.64070952    -0.54800
C596        C  0.92627852  0.20430487  0.65433456     0.09300
H597        H  0.84086992  0.25023473  0.69792876     0.13800
H598        H  0.94122092  0.17878868  0.70547296    -0.00500
H599        H  0.94013818  0.30059295  0.69710005     0.14100
H600        H  0.90908805  0.24103221  0.61292862     0.13900
C601        C  0.39673135  0.22544045  0.67213338     0.85700
C602        C  0.41555501  0.24950821  0.64419066    -0.54600
C603        C  0.43448930  0.27973211  0.65689130     0.08600
C604        C  0.43435137  0.28261744  0.69670070     0.19500
C605        C  0.42865094  0.21432154  0.69720173    -0.55300
C606        C  0.44863894  0.24388367  0.70935448     0.08700
C607        C  0.37281924  0.25365186  0.69425438    -0.54800
C608        C  0.39224321  0.28394643  0.70695685     0.09300
H609        H  0.41263379  0.24399390  0.61667984     0.13800
H610        H  0.45083504  0.30666090  0.70649063    -0.00500
H611        H  0.43366377  0.18617848  0.70694283     0.14100
H612        H  0.34296164  0.24982077  0.69959081     0.13900
C613        C  0.28687061  0.11245759  0.66722252     0.85700
C614        C  0.26339575  0.13742241  0.69244868    -0.54600
C615        C  0.23189297  0.12135089  0.70610737     0.08600
C616        C  0.22711416  0.08048467  0.69381168     0.19500
C617        C  0.29625298  0.07754311  0.68950857    -0.55300
C618        C  0.26506618  0.06066267  0.70319116     0.08700
C619        C  0.25843886  0.09806163  0.64014094    -0.54800
C620        C  0.22686604  0.08195426  0.65384347     0.09300
H621        H  0.27148679  0.16588667  0.69931956     0.13800
H622        H  0.20167922  0.06700449  0.70486554    -0.00500
H623        H  0.32396381  0.06773072  0.69572374     0.14100
H624        H  0.26304944  0.10036756  0.61231674     0.13900
C625        C  0.39324753  0.76529841  0.83610200     0.85700
C626        C  0.41040715  0.74246157  0.86614530    -0.54600
C627        C  0.43114192  0.71165993  0.85572239     0.08600
C628        C  0.43509079  0.70755679  0.81620273     0.19500
C629        C  0.42668659  0.77552718  0.81266858    -0.55300
C630        C  0.44891659  0.74585773  0.80285941     0.08700
C631        C  0.37239858  0.73590348  0.81359847    -0.54800
C632        C  0.39403623  0.70511366  0.80346107     0.09300
H633        H  0.40402210  0.74838746  0.89318861     0.13800
H634        H  0.45362381  0.68343223  0.80894710    -0.00500
H635        H  0.43064759  0.80301285  0.80136828     0.14100
H636        H  0.34292832  0.73931542  0.80624715     0.13900
C637        C  0.27869741  0.88174632  0.83253377     0.85700
C638        C  0.25296037  0.85973196  0.80804191    -0.54600
C639        C  0.22142278  0.87881395  0.79794776     0.08600
C640        C  0.21776374  0.91863190  0.81296188     0.19500
C641        C  0.28649860  0.91750731  0.81071518    -0.55300
C642        C  0.25430143  0.93747032  0.80091298     0.08700
C643        C  0.25333122  0.89574265  0.86252895    -0.54800
C644        C  0.22128847  0.91418424  0.85229084     0.09300
H645        H  0.25952785  0.83143736  0.79872580     0.13800
H646        H  0.19118734  0.93348557  0.80633924    -0.00500
H647        H  0.31409585  0.92462098  0.80072977     0.14100
H648        H  0.25954567  0.89004318  0.88961554     0.13900
C649        C  0.62156643  0.22175333  0.84365189     0.85700
C650        C  0.60652818  0.24937476  0.87157620    -0.54600
C651        C  0.58923032  0.28094588  0.85860147     0.08600
C652        C  0.58663068  0.28146755  0.81888206     0.19500
C653        C  0.58688631  0.21288467  0.82133245    -0.55300
C654        C  0.56828233  0.24382860  0.80906115     0.08700
C655        C  0.64548973  0.24582024  0.81883806    -0.54800
C656        C  0.62791856  0.27754665  0.80600524     0.09300
H657        H  0.61017020  0.24482177  0.89922699     0.13800
H658        H  0.57111217  0.30662880  0.80949607    -0.00500
H659        H  0.57933027  0.18517661  0.81247577     0.14100
H660        H  0.67427982  0.23774824  0.81151443     0.13900
C661        C  0.73674935  0.11092265  0.83330367     0.85700
C662        C  0.76090174  0.13754662  0.81149696    -0.54600
C663        C  0.79296710  0.12179223  0.79796443     0.08600
C664        C  0.79851716  0.07981840  0.80700693     0.19500
C665        C  0.72949806  0.07857657  0.80730688    -0.55300
C666        C  0.76174294  0.06134709  0.79422398     0.08700
C667        C  0.76385132  0.09368785  0.86031293    -0.54800
C668        C  0.79644527  0.07823062  0.84691798     0.09300
H669        H  0.75280277  0.16658955  0.80640907     0.13800
H670        H  0.82494267  0.06692881  0.79637657    -0.00500
H671        H  0.70189234  0.07075126  0.79810820     0.14100
H672        H  0.75822422  0.09505555  0.88801317     0.13900
C673        C  0.62948184  0.75658341  0.67323050     0.85700
C674        C  0.61370251  0.73286950  0.64329528    -0.54600
C675        C  0.58996441  0.70508295  0.65374619     0.08600
C676        C  0.58304524  0.70407952  0.69314353     0.19500
C677        C  0.59459847  0.77141157  0.69345939    -0.55300
C678        C  0.57037095  0.74421904  0.70373582     0.08700
C679        C  0.64673241  0.72746376  0.69876952    -0.54800
C680        C  0.62270640  0.69953105  0.70837901     0.09300
H681        H  0.62251252  0.73630053  0.61650994     0.13800
H682        H  0.56342268  0.68180835  0.70163617    -0.00500
H683        H  0.59078185  0.80037383  0.70183366     0.14100
H684        H  0.67560502  0.72839645  0.70817976     0.13900
C685        C  0.74323674  0.87100025  0.67484887     0.85700
C686        C  0.77052392  0.85301303  0.70170136    -0.54600
C687        C  0.79947970  0.87546235  0.71171966     0.08600
C688        C  0.79785172  0.91451115  0.69558846     0.19500
C689        C  0.72936905  0.90709968  0.69376901    -0.55300
C690        C  0.75781664  0.92996942  0.70447338     0.08700
C691        C  0.76902579  0.88480794  0.64541924    -0.54800
C692        C  0.79785241  0.90707524  0.65629849     0.09300
H693        H  0.76781637  0.82457178  0.71136179     0.13800
H694        H  0.82123118  0.93263431  0.70454756    -0.00500
H695        H  0.70008902  0.91345142  0.69984227     0.14100
H696        H  0.76550057  0.87651095  0.61854459     0.13900
In697      In  0.47331456  0.36448300  0.59275005     1.36900
C698        C  0.46538153  0.35286199  0.52492613     0.76800
O699        O  0.42239423  0.40200294  0.60690063    -0.61700
O700        O  0.46993285  0.42565689  0.58182782    -0.52600
C701        C  0.44984030  0.30917266  0.63420217     0.69400
O702        O  0.45067435  0.30634783  0.60168525    -0.47500
C703        C  0.54435880  0.38265983  0.60596707     0.74100
O704        O  0.43878994  0.36555889  0.54376016    -0.59300
O705        O  0.51670176  0.39620138  0.62280557    -0.49400
O706        O  0.49472309  0.34275093  0.54120620    -0.55700
C707        C  0.43732377  0.43097428  0.59426420     0.84300
O708        O  0.46181032  0.33990396  0.64565604    -0.57600
O709        O  0.53631953  0.35625805  0.58549533    -0.60900
In710      In  0.46556748  0.36799503  0.41899516     1.36900
C711        C  0.46385314  0.35385738  0.48687316     0.76800
O712        O  0.52872446  0.36119515  0.40715824    -0.61700
O713        O  0.50695325  0.41387662  0.42485205    -0.52600
C714        C  0.44274581  0.31336685  0.37588178     0.69400
O715        O  0.44347399  0.30980095  0.40832121    -0.47500
C716        C  0.42191596  0.42794926  0.40722462     0.74100
O717        O  0.43572245  0.36715643  0.47073272    -0.59300
O718        O  0.45000001  0.41945923  0.38835505    -0.49400
O719        O  0.49182973  0.34490875  0.46794248    -0.55700
C720        C  0.53550135  0.39482947  0.41545244     0.84300
O721        O  0.45503769  0.34422728  0.36537372    -0.57600
O722        O  0.41403602  0.40402556  0.43004179    -0.60900
In723      In  0.39034458  0.53787175  0.58911583     1.36900
C724        C  0.37427396  0.54070613  0.52215218     0.76800
O725        O  0.42575866  0.58791810  0.57827576    -0.61700
O726        O  0.44076570  0.55407860  0.62136902    -0.52600
C727        C  0.33504813  0.56315872  0.63020167     0.69400
O728        O  0.33438875  0.56766901  0.59793330    -0.47500
C729        C  0.41920206  0.46833519  0.59298360     0.74100
O730        O  0.36457179  0.51315388  0.54059079    -0.59300
O731        O  0.43659469  0.49578043  0.58056432    -0.49400
O732        O  0.38952704  0.56712936  0.53840686    -0.55700
C733        C  0.44927504  0.58095628  0.60184373     0.84300
O734        O  0.36279052  0.54412013  0.64105280    -0.57600
O735        O  0.38591570  0.47588531  0.60333228    -0.60900
In736      In  0.38439076  0.53630190  0.41656410     1.36900
C737        C  0.37239927  0.54089583  0.48430109     0.76800
O738        O  0.37881972  0.47507466  0.42814627    -0.61700
O739        O  0.41520043  0.49090102  0.38674744    -0.52600
C740        C  0.32649673  0.55700334  0.37518365     0.69400
O741        O  0.32677120  0.56311847  0.40732586    -0.47500
C742        C  0.45133663  0.57126040  0.41355226     0.74100
O743        O  0.36244967  0.51278854  0.46678064    -0.59300
O744        O  0.44721635  0.53766565  0.42240376    -0.49400
O745        O  0.38465513  0.56799318  0.46677733    -0.55700
C746        C  0.40365178  0.46508084  0.40626135     0.84300
O747        O  0.35587919  0.54043643  0.36402367    -0.57600
O748        O  0.42084805  0.58801729  0.40532133    -0.60900
In749      In  0.55979799  0.61459063  0.41666604     1.36900
C750        C  0.56314329  0.62716188  0.48459117     0.76800
O751        O  0.49614863  0.62185845  0.40616601    -0.61700
O752        O  0.51778681  0.56894204  0.42243749    -0.52600
C753        C  0.58099538  0.67171755  0.37597711     0.69400
O754        O  0.58255458  0.67296795  0.40850796    -0.47500
C755        C  0.60331732  0.55443031  0.40397910     0.74100
O756        O  0.59058286  0.61351237  0.46751574    -0.59300
O757        O  0.57371543  0.56155689  0.38688946    -0.49400
O758        O  0.53483630  0.63682594  0.46667793    -0.55700
C759        C  0.48916366  0.58813394  0.41378421     0.84300
O760        O  0.56810709  0.64150832  0.36414650    -0.57600
O761        O  0.61313097  0.58019072  0.42440765    -0.60900
In762      In  0.55710657  0.61696853  0.59020815     1.36900
C763        C  0.56279959  0.62805799  0.52252822     0.76800
O764        O  0.60748631  0.58019507  0.60698226    -0.61700
O765        O  0.56183698  0.55570020  0.57995429    -0.52600
C766        C  0.57744750  0.67458592  0.63058126     0.69400
O767        O  0.58489130  0.67319561  0.59865717    -0.47500
C768        C  0.48619641  0.59867519  0.60244358     0.74100
O769        O  0.59021471  0.61586275  0.54036571    -0.59300
O770        O  0.51306411  0.58655288  0.62094034    -0.49400
O771        O  0.53380678  0.63784862  0.53970973    -0.55700
C772        C  0.59354042  0.55086337  0.59399346     0.84300
O773        O  0.55963517  0.64677278  0.64164007    -0.57600
O774        O  0.49501621  0.62345366  0.58073624    -0.60900
In775      In  0.63994600  0.44385012  0.59232412     1.36900
C776        C  0.65349442  0.43975042  0.52405644     0.76800
O777        O  0.60809748  0.38988421  0.58639561    -0.61700
O778        O  0.58635815  0.43161258  0.62102162    -0.52600
C779        C  0.69408217  0.42237205  0.63663320     0.69400
O780        O  0.69794840  0.42076064  0.60415686    -0.47500
C781        C  0.61154506  0.51350322  0.59421606     0.74100
O782        O  0.66533806  0.46659392  0.54242222    -0.59300
O783        O  0.59469209  0.48582675  0.58154949    -0.49400
O784        O  0.63838221  0.41379237  0.54101945    -0.55700
C785        C  0.58121005  0.40075186  0.60575155     0.84300
O786        O  0.66323191  0.43683950  0.64661898    -0.57600
O787        O  0.64404273  0.50607455  0.60625013    -0.60900
In788      In  0.63966672  0.44581702  0.41768035     1.36900
C789        C  0.65305254  0.44014172  0.48582526     0.76800
O790        O  0.64689016  0.50804476  0.42548416    -0.61700
O791        O  0.60766883  0.48982683  0.38760728    -0.52600
C792        C  0.69409566  0.42196764  0.37352108     0.69400
O793        O  0.69673013  0.41865747  0.40590363    -0.47500
C794        C  0.57312366  0.41158229  0.41533142     0.74100
O795        O  0.66492894  0.46720025  0.46800402    -0.59300
O796        O  0.57736499  0.44489611  0.42542587    -0.49400
O797        O  0.63725960  0.41477125  0.46842065    -0.55700
C798        C  0.62098012  0.51691682  0.40448630     0.84300
O799        O  0.66383290  0.43753129  0.36373319    -0.57600
O800        O  0.60333658  0.39476422  0.40605994    -0.60900
C801        C  0.64671236  0.82486527  0.65599613    -0.02700
C802        C  0.65767609  0.78675631  0.66141148     0.07000
C803        C  0.69608478  0.77726068  0.65444359    -0.02800
C804        C  0.72359198  0.80545184  0.65450441    -0.02800
C805        C  0.71298631  0.84321546  0.66223213     0.07100
C806        C  0.67435432  0.85326343  0.65682279    -0.03000
Br807      Br  0.65995585  0.90353413  0.64246006    -0.01500
Br808      Br  0.59612852  0.83735596  0.64003196    -0.01600
Br809      Br  0.77524150  0.79206900  0.64201921    -0.01600
Br810      Br  0.71142081  0.72657326  0.64215529    -0.01500
C811        C  0.77816866  0.02703282  0.73758887    -0.02700
C812        C  0.76001268  0.02779364  0.77045100     0.07000
C813        C  0.73793156  0.99659387  0.78013679    -0.02800
C814        C  0.73322396  0.96598087  0.75719122    -0.02800
C815        C  0.75212918  0.96542203  0.72478131     0.07100
C816        C  0.77191563  0.99735248  0.71426352    -0.03000
Br817      Br  0.78790071  0.00189577  0.66646124    -0.01500
Br818      Br  0.81531991  0.06301358  0.72419788    -0.01600
Br819      Br  0.70162336  0.92482633  0.77141498    -0.01600
Br820      Br  0.71904697  0.99253398  0.82706989    -0.01500
C821        C  0.63551619  0.15010165  0.85263017    -0.02700
C822        C  0.64528789  0.18816916  0.85761502     0.07000
C823        C  0.68142214  0.19460544  0.87182944    -0.02800
C824        C  0.71054906  0.16753246  0.86746577    -0.02800
C825        C  0.70315145  0.13307819  0.84999167     0.07100
C826        C  0.66455355  0.12239441  0.84823969    -0.03000
Br827      Br  0.65051448  0.07021202  0.84798645    -0.01500
Br828      Br  0.58423711  0.13469166  0.86201947    -0.01600
Br829      Br  0.76071736  0.17963602  0.88396563    -0.01600
Br830      Br  0.69132522  0.23981963  0.89781671    -0.01500
C831        C  0.47128027  0.74930018  0.74137143    -0.02700
C832        C  0.47955689  0.75042677  0.77705810     0.07000
C833        C  0.51661643  0.75825812  0.78782511    -0.02800
C834        C  0.54558513  0.76193103  0.76290045    -0.02800
C835        C  0.53851309  0.75181612  0.72802155     0.07100
C836        C  0.50101021  0.74650784  0.71713293    -0.03000
Br837      Br  0.49028483  0.73561971  0.66920199    -0.01500
Br838      Br  0.41955485  0.75345132  0.72565848    -0.01600
Br839      Br  0.59525150  0.77786440  0.77728999    -0.01600
Br840      Br  0.52777526  0.76285956  0.83657760    -0.01500
C841        C  0.37811518  0.83670446  0.84624890    -0.02700
C842        C  0.36740493  0.79845762  0.84795387     0.07000
C843        C  0.33079716  0.79162549  0.86100469    -0.02800
C844        C  0.30238684  0.81964004  0.85870914    -0.02800
C845        C  0.31115076  0.85573900  0.84526678     0.07100
C846        C  0.34986547  0.86544805  0.84497379    -0.03000
Br847      Br  0.36445182  0.91687918  0.85217921    -0.01500
Br848      Br  0.42999487  0.85042152  0.85513351    -0.01600
Br849      Br  0.25176174  0.80726851  0.87407203    -0.01600
Br850      Br  0.32016303  0.74578222  0.88531344    -0.01500
C851        C  0.28218977  0.99943893  0.78290610    -0.02700
C852        C  0.25537096  0.97090441  0.77714669     0.07000
C853        C  0.23234446  0.97354256  0.74701172    -0.02800
C854        C  0.24211639  0.99802712  0.72036693    -0.02800
C855        C  0.26691824  0.02756915  0.72666949     0.07100
C856        C  0.28714282  0.02831111  0.75829548    -0.03000
Br857      Br  0.31899125  0.07017878  0.76979846    -0.01500
Br858      Br  0.30727095  0.00303437  0.82721679    -0.01600
Br859      Br  0.22320871  0.98872819  0.67426648    -0.01600
Br860      Br  0.18266907  0.95228760  0.74237057    -0.01500
C861        C  0.51716008  0.23795012  0.72375079    -0.02700
C862        C  0.47919527  0.23894248  0.73480254     0.07000
C863        C  0.47045255  0.23565286  0.77029167    -0.02800
C864        C  0.49932459  0.24003003  0.79488752    -0.02800
C865        C  0.53736472  0.24029385  0.78380198     0.07100
C866        C  0.54614443  0.23520249  0.74841166    -0.03000
Br867      Br  0.59753256  0.22410440  0.73373577    -0.01500
Br868      Br  0.52947723  0.24058659  0.67511281    -0.01600
Br869      Br  0.48659659  0.24705399  0.84314224    -0.01600
Br870      Br  0.41928084  0.22522202  0.78495912    -0.01500
C871        C  0.35868350  0.12576798  0.65530072    -0.02700
C872        C  0.31976466  0.13551381  0.65195732     0.07000
C873        C  0.31160031  0.17150838  0.63794127    -0.02800
C874        C  0.33805463  0.20037395  0.64116508    -0.02800
C875        C  0.37340985  0.19292614  0.65700531     0.07100
C876        C  0.38576869  0.15470308  0.65718777    -0.03000
Br877      Br  0.43883760  0.14203192  0.65057284    -0.01500
Br878      Br  0.37602582  0.07462590  0.64753482    -0.01600
Br879      Br  0.32576403  0.24913772  0.62236903    -0.01600
Br880      Br  0.26493072  0.18174141  0.61376827    -0.01500
C881        C  0.82943644  0.17073602  0.71764556    -0.02700
C882        C  0.86453758  0.18462709  0.72909765     0.07000
C883        C  0.87645243  0.17638940  0.76334735    -0.02800
C884        C  0.85309968  0.15569680  0.78577365    -0.02800
C885        C  0.81768597  0.14326899  0.77438336     0.07100
C886        C  0.80516616  0.15234132  0.74073871    -0.03000
Br887      Br  0.75462225  0.13949122  0.72592252    -0.01500
Br888      Br  0.81592062  0.17304034  0.66935052    -0.01600
Br889      Br  0.86790668  0.14733187  0.83333513    -0.01600
Br890      Br  0.92411541  0.19319878  0.78076959    -0.01500
C891        C  0.65633672  0.33700806  0.72662466    -0.02700
C892        C  0.69560943  0.33943297  0.73221360     0.07000
C893        C  0.71106869  0.32559876  0.76347892    -0.02800
C894        C  0.68718662  0.31104020  0.78911536    -0.02800
C895        C  0.64864342  0.30401019  0.78218716     0.07100
C896        C  0.63277675  0.31949247  0.75134194    -0.03000
Br897      Br  0.57917702  0.32029048  0.74225749    -0.01500
Br898      Br  0.63510703  0.35581955  0.68383784    -0.01600
Br899      Br  0.70601040  0.30795640  0.83591855    -0.01600
Br900      Br  0.76463295  0.32971396  0.77350591    -0.01500
C901        C  0.80752644  0.31615781  0.64010134    -0.02700
C902        C  0.81324665  0.34975584  0.65910266     0.07000
C903        C  0.85093720  0.36243511  0.66107457    -0.02800
C904        C  0.88120984  0.33605822  0.65784299    -0.02800
C905        C  0.87290217  0.29773309  0.65195318     0.07100
C906        C  0.83769264  0.29035537  0.63597052    -0.03000
Br907      Br  0.82977270  0.24538392  0.60896646    -0.01500
Br908      Br  0.75879671  0.30459486  0.62009700    -0.01600
Br909      Br  0.93205077  0.35396422  0.65135770    -0.01600
Br910      Br  0.86098900  0.41537452  0.65743848    -0.01500
C911        C  0.19520249  0.12836152  0.76324653    -0.02700
C912        C  0.20575185  0.14265017  0.73030660     0.07000
C913        C  0.19353300  0.17947846  0.72139085    -0.02800
C914        C  0.17429547  0.20246296  0.74553161    -0.02800
C915        C  0.16233604  0.18732845  0.77739413     0.07100
C916        C  0.17327818  0.15059379  0.78643320    -0.03000
Br917      Br  0.16142218  0.13244851  0.83230039    -0.01500
Br918      Br  0.21104565  0.07935118  0.77851891    -0.01600
Br919      Br  0.16267876  0.25443360  0.73369331    -0.01600
Br920      Br  0.19853705  0.19791973  0.67485798    -0.01500
C921        C  0.04523784  0.22212562  0.74106608    -0.02700
C922        C  0.04446315  0.24249927  0.77282757     0.07000
C923        C  0.01117795  0.26345615  0.78146731    -0.02800
C924        C  0.97993339  0.26447998  0.75867006    -0.02800
C925        C  0.98107019  0.24367967  0.72729885     0.07100
C926        C  0.01429176  0.22363792  0.71822809    -0.03000
Br927      Br  0.01893374  0.20034450  0.67293224    -0.01500
Br928      Br  0.08752763  0.19102678  0.72719899    -0.01600
Br929      Br  0.93469283  0.29269927  0.77186050    -0.01600
Br930      Br  0.00611211  0.28773647  0.82622526    -0.01500
C931        C  0.31182099  0.34576481  0.73889968    -0.02700
C932        C  0.32203030  0.35292219  0.77346871     0.07000
C933        C  0.35864501  0.34282283  0.78479233    -0.02800
C934        C  0.38447783  0.32481182  0.76181384    -0.02800
C935        C  0.37269385  0.31429527  0.72803316     0.07100
C936        C  0.33792586  0.32892290  0.71594409    -0.03000
Br937      Br  0.32873790  0.33179381  0.66693892    -0.01500
Br938      Br  0.26120129  0.35595821  0.72306192    -0.01600
Br939      Br  0.43636829  0.32032644  0.77612694    -0.01600
Br940      Br  0.37207653  0.34990546  0.83282419    -0.01500
C941        C  0.18460424  0.29334569  0.86656622    -0.02700
C942        C  0.14853938  0.30055006  0.85153695     0.07000
C943        C  0.13795433  0.33876979  0.84695113    -0.02800
C944        C  0.16620116  0.36658836  0.84647052    -0.02800
C945        C  0.20497440  0.35560797  0.84824058     0.07100
C946        C  0.21325300  0.32013422  0.86350538    -0.03000
Br947      Br  0.26403924  0.30629536  0.87830558    -0.01500
Br948      Br  0.19646383  0.24546832  0.88811468    -0.01600
Br949      Br  0.15095489  0.41868980  0.85246030    -0.01600
Br950      Br  0.08541924  0.35426778  0.84932413    -0.01500
C951        C  0.85392863  0.84584642  0.79142571    -0.02700
C952        C  0.87895800  0.81900267  0.77671302     0.07000
C953        C  0.88413067  0.81756838  0.74058177    -0.02800
C954        C  0.86013127  0.83892036  0.71901120    -0.02800
C955        C  0.83099234  0.86151535  0.73373997     0.07100
C956        C  0.83016065  0.86736817  0.76987432    -0.03000
Br957      Br  0.79628813  0.90396127  0.79019927    -0.01500
Br958      Br  0.85084610  0.85149813  0.84117541    -0.01600
Br959      Br  0.86692280  0.83664004  0.66946824    -0.01600
Br960      Br  0.92230796  0.78455549  0.72071691    -0.01500
C961        C  0.68264100  0.61612017  0.73597992    -0.02700
C962        C  0.67820942  0.61889086  0.77217249     0.07000
C963        C  0.64852707  0.64096643  0.78607499    -0.02800
C964        C  0.62549645  0.66236933  0.76390635    -0.02800
C965        C  0.63582820  0.66649556  0.72881373     0.07100
C966        C  0.66260677  0.64106604  0.71433423    -0.03000
Br967      Br  0.67127844  0.63973428  0.66498163    -0.01500
Br968      Br  0.71652079  0.57903552  0.71620655    -0.01600
Br969      Br  0.57849711  0.68168210  0.78150591    -0.01600
Br970      Br  0.64134105  0.64447381  0.83563100    -0.01500
C971        C  0.73846445  0.48377419  0.79439366    -0.02700
C972        C  0.75781268  0.51599515  0.78336807     0.07000
C973        C  0.77822409  0.51419863  0.75165311    -0.02800
C974        C  0.77463774  0.48313417  0.72936235    -0.02800
C975        C  0.75445511  0.45134097  0.73985492     0.07100
C976        C  0.73608136  0.45203053  0.77255219    -0.03000
Br977      Br  0.70575830  0.41118711  0.78797272    -0.01500
Br978      Br  0.71818778  0.48127253  0.84098334    -0.01600
Br979      Br  0.79297130  0.48685158  0.68217446    -0.01600
Br980      Br  0.81204452  0.55293340  0.73720109    -0.01500
C981        C  0.81564649  0.65654675  0.79951595    -0.02700
C982        C  0.80123616  0.64068350  0.83076481     0.07000
C983        C  0.82213365  0.64732440  0.86164194    -0.02800
C984        C  0.85066180  0.67522337  0.86266505    -0.02800
C985        C  0.86026578  0.69557761  0.83233564     0.07100
C986        C  0.84510314  0.68245084  0.80025800    -0.03000
Br987      Br  0.86401975  0.69913913  0.75526036    -0.01500
Br988      Br  0.79668524  0.64355338  0.75355793    -0.01600
Br989      Br  0.88058645  0.67935553  0.90419468    -0.01600
Br990      Br  0.81829226  0.61371135  0.90068266    -0.01500
C991        C  0.14761398  0.81558156  0.76325817    -0.02700
C992        C  0.14834303  0.82316591  0.72726982     0.07000
C993        C  0.17584934  0.84776765  0.71428956    -0.02800
C994        C  0.20176214  0.86388214  0.73728821    -0.02800
C995        C  0.19488339  0.86226561  0.77333353     0.07100
C996        C  0.16651001  0.83910892  0.78617967    -0.03000
Br997      Br  0.15689852  0.83581628  0.83534223    -0.01500
Br998      Br  0.13163080  0.76766418  0.78112763    -0.01600
Br999      Br  0.24856706  0.88366927  0.71948441    -0.01600
Br1000     Br  0.18195248  0.85421244  0.66483200    -0.01500
C1001       C  0.98959554  0.71565242  0.75449748    -0.02700
C1002       C  0.98485915  0.74034830  0.78340428     0.07000
C1003       C  0.01316931  0.76679269  0.78952195    -0.02800
C1004       C  0.03893907  0.77577003  0.76345687    -0.02800
C1005       C  0.04548905  0.75041330  0.73542580     0.07100
C1006       C  0.02025792  0.72022547  0.73128823    -0.03000
Br1007     Br  0.02319916  0.68874121  0.69030170    -0.01500
Br1008     Br  0.95580806  0.67493226  0.74509968    -0.01600
Br1009     Br  0.05744119  0.82646019  0.76577654    -0.01600
Br1010     Br  0.02067383  0.78782615  0.83519803    -0.01500
C1011       C  0.31928813  0.64142757  0.76742261    -0.02700
C1012       C  0.33497107  0.63119426  0.73493614     0.07000
C1013       C  0.37331725  0.63800134  0.72808525    -0.02800
C1014       C  0.39516082  0.65792586  0.75240368    -0.02800
C1015       C  0.37770418  0.67317773  0.78284437     0.07100
C1016       C  0.34124244  0.66058556  0.79170584    -0.03000
Br1017     Br  0.32295121  0.66489976  0.83860273    -0.01500
Br1018     Br  0.26757945  0.62887039  0.77920870    -0.01600
Br1019     Br  0.44874246  0.66048395  0.74362633    -0.01600
Br1020     Br  0.39497250  0.62285777  0.68402609    -0.01500
C1021       C  0.24081124  0.49852561  0.72043161    -0.02700
C1022       C  0.26733711  0.52681931  0.72817440     0.07000
C1023       C  0.28866502  0.52322654  0.75921525    -0.02800
C1024       C  0.27987373  0.49561502  0.78343643    -0.02800
C1025       C  0.25687569  0.46542554  0.77444630     0.07100
C1026       C  0.23592307  0.46770361  0.74313426    -0.03000
Br1027     Br  0.19914934  0.43042263  0.73107042    -0.01500
Br1028     Br  0.21446697  0.49903182  0.67655669    -0.01600
Br1029     Br  0.29462160  0.50332482  0.83105900    -0.01600
Br1030     Br  0.33359139  0.55083421  0.76968259    -0.01500
C1031       C  0.18311008  0.63597621  0.65397941    -0.02700
C1032       C  0.22144478  0.64539901  0.66017830     0.07000
C1033       C  0.22867528  0.68405761  0.66216040    -0.02800
C1034       C  0.20177700  0.70580976  0.67884847    -0.02800
C1035       C  0.16339963  0.70061112  0.67029701     0.07100
C1036       C  0.15419953  0.66464137  0.65645400    -0.03000
Br1037     Br  0.10304449  0.65306520  0.64437140    -0.01500
Br1038     Br  0.17127428  0.58651879  0.63737619    -0.01600
Br1039     Br  0.21528366  0.71671177  0.72654546    -0.01600
Br1040     Br  0.27626141  0.70701431  0.65066783    -0.01500
C1041       C  0.64206902  0.82937685  0.35119333    -0.02700
C1042       C  0.65331913  0.79095965  0.35059879     0.07000
C1043       C  0.69089648  0.78256002  0.36104090    -0.02800
C1044       C  0.71796351  0.81114044  0.36149889    -0.02800
C1045       C  0.70868311  0.84731609  0.34795425     0.07100
C1046       C  0.66969006  0.85757404  0.34777883    -0.03000
Br1047     Br  0.65351026  0.90948760  0.35052114    -0.01500
Br1048     Br  0.59179684  0.84340479  0.36725712    -0.01600
Br1049     Br  0.76760221  0.79993664  0.38052352    -0.01600
Br1050     Br  0.70628095  0.73217155  0.37417779    -0.01500
C1051       C  0.73509125  0.98669450  0.27819586    -0.02700
C1052       C  0.76226052  0.95738727  0.27292891     0.07000
C1053       C  0.78570504  0.95926898  0.24284557    -0.02800
C1054       C  0.77900408  0.98683906  0.21742800    -0.02800
C1055       C  0.75370060  0.01710262  0.22362470     0.07100
C1056       C  0.73024713  0.01583938  0.25360814    -0.03000
Br1057     Br  0.69015293  0.05250757  0.26185675    -0.01500
Br1058     Br  0.70834856  0.99081358  0.32194152    -0.01600
Br1059     Br  0.80127908  0.98002742  0.17186150    -0.01600
Br1060     Br  0.83055193  0.92868339  0.23578869    -0.01500
C1061       C  0.68606292  0.19862567  0.13952712    -0.02700
C1062       C  0.64895941  0.19181751  0.15157194     0.07000
C1063       C  0.63792847  0.15374275  0.15220934    -0.02800
C1064       C  0.66603100  0.12476247  0.15303780    -0.02800
C1065       C  0.70494297  0.13432232  0.15491326     0.07100
C1066       C  0.71449101  0.17081379  0.14309157    -0.03000
Br1067     Br  0.76635014  0.18456674  0.13309511    -0.01500
Br1068     Br  0.69801526  0.24511061  0.11687945    -0.01600
Br1069     Br  0.65096266  0.07397489  0.14259720    -0.01600
Br1070     Br  0.58605569  0.14101138  0.14237112    -0.01500
C1071       C  0.50742113  0.22707598  0.28064445    -0.02700
C1072       C  0.47513880  0.24975513  0.27288700     0.07000
C1073       C  0.47496615  0.26999747  0.24127337    -0.02800
C1074       C  0.50459361  0.26544986  0.21712460    -0.02800
C1075       C  0.53707465  0.24399613  0.22534864     0.07100
C1076       C  0.53815422  0.22414520  0.25705890    -0.03000
Br1077     Br  0.58298409  0.19551238  0.26999435    -0.01500
Br1078     Br  0.51232966  0.20394200  0.32563418    -0.01600
Br1079     Br  0.49902957  0.28700724  0.17143916    -0.01600
Br1080     Br  0.43651503  0.30650410  0.23002866    -0.01500
C1081       C  0.33237192  0.20425972  0.36629705    -0.02700
C1082       C  0.36836068  0.19619018  0.35129654     0.07000
C1083       C  0.37908461  0.15775084  0.34886505    -0.02800
C1084       C  0.35089775  0.12986038  0.35064070    -0.02800
C1085       C  0.31206168  0.14077534  0.35137133     0.07100
C1086       C  0.30360157  0.17744158  0.36431607    -0.03000
Br1087     Br  0.25277816  0.19242798  0.37812194    -0.01500
Br1088     Br  0.32203191  0.25203825  0.38902542    -0.01600
Br1089     Br  0.36574406  0.07924138  0.36315578    -0.01600
Br1090     Br  0.43171697  0.14297267  0.35221928    -0.01500
C1091       C  0.23520895  0.96397671  0.26958390    -0.02700
C1092       C  0.25394554  0.96270590  0.23714770     0.07000
C1093       C  0.27679764  0.99329552  0.22761185    -0.02800
C1094       C  0.28218181  0.02367551  0.25067446    -0.02800
C1095       C  0.26256293  0.02521966  0.28275281     0.07100
C1096       C  0.24103303  0.99403530  0.29268753    -0.03000
Br1097     Br  0.22398279  0.98943105  0.34001532    -0.01500
Br1098     Br  0.20005247  0.92614170  0.28320387    -0.01600
Br1099     Br  0.31866207  0.06103655  0.23835329    -0.01600
Br1100     Br  0.29760566  0.99586717  0.18122241    -0.01500
C1101       C  0.50571949  0.76264930  0.22974312    -0.02700
C1102       C  0.47424216  0.74031243  0.23835450     0.07000
C1103       C  0.47445694  0.72106393  0.27049406    -0.02800
C1104       C  0.50345270  0.72699623  0.29450285    -0.02800
C1105       C  0.53570397  0.74687561  0.28489820     0.07100
C1106       C  0.53619064  0.76621717  0.25297917    -0.03000
Br1107     Br  0.57873210  0.79684840  0.23996490    -0.01500
Br1108     Br  0.51021793  0.78400077  0.18398392    -0.01600
Br1109     Br  0.49734190  0.71079549  0.34200432    -0.01600
Br1110     Br  0.43919369  0.68267945  0.28193419    -0.01500
C1111       C  0.37897314  0.83528285  0.16653818    -0.02700
C1112       C  0.36794977  0.79761148  0.16198405     0.07000
C1113       C  0.33311022  0.79191641  0.14481300    -0.02800
C1114       C  0.30558154  0.82097509  0.14433239    -0.02800
C1115       C  0.31241466  0.85535850  0.16200729     0.07100
C1116       C  0.35101434  0.86430215  0.16770216    -0.03000
Br1117     Br  0.36758529  0.91571444  0.16906465    -0.01500
Br1118     Br  0.43149246  0.84792622  0.16025525    -0.01600
Br1119     Br  0.25813810  0.81228407  0.12082919    -0.01600
Br1120     Br  0.32219061  0.74443651  0.12257117    -0.01500
C1121       C  0.83637381  0.82478431  0.21640570    -0.02700
C1122       C  0.87261215  0.81126855  0.22590314     0.07000
C1123       C  0.88711846  0.82176526  0.25872834    -0.02800
C1124       C  0.86304971  0.83920406  0.28346904    -0.02800
C1125       C  0.82522814  0.84780834  0.27503414     0.07100
C1126       C  0.81184297  0.84054521  0.24130537    -0.03000
Br1127     Br  0.76022156  0.85307146  0.22842438    -0.01500
Br1128     Br  0.82254407  0.82727252  0.16827613    -0.01600
Br1129     Br  0.88072621  0.84801910  0.33005738    -0.01600
Br1130     Br  0.93985699  0.81595386  0.27005628    -0.01500
C1131       C  0.69651673  0.62870966  0.26939143    -0.02700
C1132       C  0.69434525  0.63211142  0.23304001     0.07000
C1133       C  0.66458928  0.65351854  0.21839572    -0.02800
C1134       C  0.64000946  0.67479485  0.23993496    -0.02800
C1135       C  0.64514775  0.67473999  0.27615611     0.07100
C1136       C  0.67136019  0.64930354  0.29083672    -0.03000
Br1137     Br  0.67208094  0.64215981  0.34040758    -0.01500
Br1138     Br  0.73465532  0.59741641  0.29033765    -0.01600
Br1139     Br  0.59937331  0.70328606  0.21951068    -0.01600
Br1140     Br  0.65801707  0.65452230  0.16876173    -0.01500
C1141       C  0.84937620  0.62556878  0.15510469    -0.02700
C1142       C  0.81087218  0.63729627  0.15708612     0.07000
C1143       C  0.80236399  0.67409603  0.14505724    -0.02800
C1144       C  0.83137763  0.70056364  0.14235238    -0.02800
C1145       C  0.86814020  0.69166594  0.15469928     0.07100
C1146       C  0.87822011  0.65283694  0.15537753    -0.03000
Br1147     Br  0.93006231  0.63644765  0.14781219    -0.01500
Br1148     Br  0.86202922  0.57470599  0.14081463    -0.01600
Br1149     Br  0.82095856  0.74769309  0.11966320    -0.01600
Br1150     Br  0.75152739  0.68902288  0.13180413    -0.01500
C1151       C  0.20814482  0.83645370  0.26395825    -0.02700
C1152       C  0.19330696  0.84997923  0.23240259     0.07000
C1153       C  0.15453216  0.84544394  0.22533747    -0.02800
C1154       C  0.13139479  0.82483790  0.24827444    -0.02800
C1155       C  0.14743566  0.80787400  0.27841667     0.07100
C1156       C  0.18466600  0.81793510  0.28749860    -0.03000
Br1157     Br  0.20170622  0.81305336  0.33457655    -0.01500
Br1158     Br  0.26035542  0.84526163  0.27670185    -0.01600
Br1159     Br  0.07799777  0.82390760  0.23813385    -0.01600
Br1160     Br  0.13342515  0.86578641  0.18317931    -0.01500
C1161       C  0.04745103  0.73673657  0.23957180    -0.02700
C1162       C  0.03985671  0.73535342  0.27542919     0.07000
C1163       C  0.00266921  0.72853669  0.28682813    -0.02800
C1164       C  0.97269227  0.72829660  0.26277046    -0.02800
C1165       C  0.97975303  0.73702195  0.22765039     0.07100
C1166       C  0.01734946  0.74016251  0.21592610    -0.03000
Br1167     Br  0.02763590  0.74894366  0.16753456    -0.01500
Br1168     Br  0.09876050  0.73055952  0.22273443    -0.01600
Br1169     Br  0.92188975  0.71755069  0.27818542    -0.01600
Br1170     Br  0.99324507  0.71791157  0.33502770    -0.01500
C1171       C  0.33700942  0.66826019  0.29110076    -0.02700
C1172       C  0.32796765  0.63112305  0.28150416     0.07000
C1173       C  0.34281375  0.61686528  0.24967679    -0.02800
C1174       C  0.35924481  0.64160978  0.22560684    -0.02800
C1175       C  0.36267135  0.68007354  0.23358835     0.07100
C1176       C  0.35147219  0.69338278  0.26666122    -0.03000
Br1177     Br  0.35875695  0.74531745  0.28010270    -0.01500
Br1178     Br  0.33629256  0.68260417  0.33932818    -0.01600
Br1179     Br  0.37433536  0.62321927  0.18044177    -0.01600
Br1180     Br  0.34544521  0.56384944  0.23907534    -0.01500
C1181       C  0.16725031  0.62111515  0.34802508    -0.02700
C1182       C  0.20584497  0.63108019  0.35090300     0.07000
C1183       C  0.21291417  0.66604203  0.36699079    -0.02800
C1184       C  0.18502197  0.69475763  0.36622446    -0.02800
C1185       C  0.14960162  0.68795301  0.35044283     0.07100
C1186       C  0.13890236  0.64977121  0.34863445    -0.03000
Br1187     Br  0.08721165  0.63651947  0.35877825    -0.01500
Br1188     Br  0.15243502  0.56931157  0.35306780    -0.01600
Br1189     Br  0.19461097  0.74116038  0.39017258    -0.01600
Br1190     Br  0.25890644  0.67372907  0.39267873    -0.01500
C1191       C  0.80663604  0.13429755  0.26693285    -0.02700
C1192       C  0.81886293  0.12559268  0.23297464     0.07000
C1193       C  0.85646952  0.13345548  0.22342911    -0.02800
C1194       C  0.88086243  0.15152118  0.24693011    -0.02800
C1195       C  0.86653009  0.16571922  0.27893992     0.07100
C1196       C  0.83043967  0.15371114  0.28983605    -0.03000
Br1197     Br  0.81500114  0.15994088  0.33748501    -0.01500
Br1198     Br  0.75701006  0.12009856  0.28233067    -0.01600
Br1199     Br  0.93385674  0.15295060  0.23504864    -0.01600
Br1200     Br  0.87397175  0.12323104  0.17691379    -0.01500
C1201       C  0.70908276  0.33968787  0.23971427    -0.02700
C1202       C  0.69660530  0.34757918  0.27377972     0.07000
C1203       C  0.66103188  0.33531683  0.28497792    -0.02800
C1204       C  0.63798804  0.31480726  0.26222442    -0.02800
C1205       C  0.65043094  0.30696194  0.22797260     0.07100
C1206       C  0.68476687  0.32218692  0.21633084    -0.03000
Br1207     Br  0.69665834  0.32346760  0.16765108    -0.01500
Br1208     Br  0.75962006  0.35254534  0.22465932    -0.01600
Br1209     Br  0.59008211  0.29774429  0.27902043    -0.01600
Br1210     Br  0.64590745  0.34300631  0.33268349    -0.01500
C1211       C  0.78541253  0.51977899  0.25587355    -0.02700
C1212       C  0.76368600  0.52140198  0.22509537     0.07000
C1213       C  0.74061912  0.49084420  0.21669786    -0.02800
C1214       C  0.73464636  0.46185285  0.24064944    -0.02800
C1215       C  0.75630580  0.45971075  0.27155964     0.07100
C1216       C  0.78116916  0.48951800  0.27912684    -0.03000
Br1217     Br  0.80563019  0.49213650  0.32381770    -0.01500
Br1218     Br  0.82149796  0.55830415  0.26706781    -0.01600
Br1219     Br  0.69371994  0.42862084  0.23054847    -0.01600
Br1220     Br  0.72054038  0.48598456  0.17032694    -0.01500
C1221       C  0.80490875  0.31393787  0.36003536    -0.02700
C1222       C  0.81334753  0.34889876  0.34412979     0.07000
C1223       C  0.85215276  0.35761545  0.34056830    -0.02800
C1224       C  0.87971054  0.32820637  0.34135998    -0.02800
C1225       C  0.86804340  0.29045304  0.34496251     0.07100
C1226       C  0.83263572  0.28521554  0.36116074    -0.03000
Br1227     Br  0.82260727  0.24026830  0.38711222    -0.01500
Br1228     Br  0.75504560  0.30345869  0.37861102    -0.01600
Br1229     Br  0.93230742  0.34058189  0.34802270    -0.01600
Br1230     Br  0.86852980  0.40899651  0.34333012    -0.01500
C1231       C  0.18766156  0.15931955  0.21428656    -0.02700
C1232       C  0.15036166  0.17056681  0.22311729     0.07000
C1233       C  0.13540084  0.15792837  0.25513885    -0.02800
C1234       C  0.15940240  0.14046747  0.27971679    -0.02800
C1235       C  0.19834096  0.13519267  0.27264334     0.07100
C1236       C  0.21225187  0.14465537  0.23952473    -0.03000
Br1237     Br  0.26528251  0.14022166  0.22840550    -0.01500
Br1238     Br  0.20373941  0.15916763  0.16650737    -0.01600
Br1239     Br  0.13916710  0.12739942  0.32448576    -0.01600
Br1240     Br  0.08233390  0.16167380  0.26617772    -0.01500
C1241       C  0.00332032  0.24093358  0.21410901    -0.02700
C1242       C  0.03999935  0.24210238  0.22816983     0.07000
C1243       C  0.04453509  0.24516759  0.26437499    -0.02800
C1244       C  0.01332902  0.23928809  0.28640780    -0.02800
C1245       C  0.97674269  0.23635677  0.27231776     0.07100
C1246       C  0.97159710  0.24068265  0.23628536    -0.03000
Br1247     Br  0.92146840  0.24812546  0.21742381    -0.01500
Br1248     Br  0.99658094  0.24108846  0.16451712    -0.01600
Br1249     Br  0.02068273  0.23517398  0.33578494    -0.01600
Br1250     Br  0.09307283  0.25782158  0.28372625    -0.01500
C1251       C  0.33258811  0.31677997  0.22081915    -0.02700
C1252       C  0.32237819  0.35475775  0.22755046     0.07000
C1253       C  0.33699543  0.37180814  0.25815454    -0.02800
C1254       C  0.35682035  0.34977184  0.28292330    -0.02800
C1255       C  0.36218084  0.31084195  0.27766925     0.07100
C1256       C  0.34949799  0.29434486  0.24647780    -0.03000
Br1257     Br  0.35800267  0.24124013  0.23685507    -0.01500
Br1258     Br  0.32960341  0.29656069  0.17448715    -0.01600
Br1259     Br  0.37434147  0.37235555  0.32547145    -0.01600
Br1260     Br  0.33246920  0.42498433  0.26722169    -0.01500
C1261       C  0.25515161  0.50044631  0.21504084    -0.02700
C1262       C  0.25093276  0.46350488  0.22736674     0.07000
C1263       C  0.24364209  0.45756975  0.26291312    -0.02800
C1264       C  0.24672561  0.48760948  0.28658178    -0.02800
C1265       C  0.25486866  0.52386556  0.27446231     0.07100
C1266       C  0.25500583  0.53083090  0.23855350    -0.03000
Br1267     Br  0.25129976  0.58186828  0.22177372    -0.01500
Br1268     Br  0.26002981  0.50956520  0.16602868    -0.01600
Br1269     Br  0.23829309  0.47963576  0.33543924    -0.01600
Br1270     Br  0.23033718  0.40830773  0.27932407    -0.01500
C1271       C  0.16370700  0.36077896  0.15798882    -0.02700
C1272       C  0.20293461  0.35182601  0.15504224     0.07000
C1273       C  0.21204624  0.31640991  0.13978620    -0.02800
C1274       C  0.18563234  0.28717451  0.14069978    -0.02800
C1275       C  0.14959894  0.29342055  0.15604636     0.07100
C1276       C  0.13692780  0.33144260  0.15799577    -0.03000
Br1277     Br  0.08402471  0.34365152  0.15042591    -0.01500
Br1278     Br  0.14575391  0.41190198  0.15178654    -0.01600
Br1279     Br  0.19830831  0.23991212  0.11851391    -0.01600
Br1280     Br  0.25904360  0.30821832  0.11504885    -0.01500
loop_ 
_geom_bond_atom_site_label_1 
_geom_bond_atom_site_label_2 
_geom_bond_distance 
_geom_bond_site_symmetry_2 
_ccdc_geom_bond_type 
In1           O3   2.256       .  S
In1           O4   2.261       .  S
In1          O12   2.262       .  S
In1           O6   2.270       .  S
In1           O8   2.229       .  S
In1           O9   2.231   1_655  S
In1          O10   2.254       .  S
In1          O13   2.296   1_655  S
C2            O8   1.258       .  A
C2           O10   1.263       .  A
C2           C15   1.460   1_554  S
O3           C11   1.258       .  A
O4           C11   1.262       .  A
C5           O12   1.258       .  A
C5            O6   1.256       .  A
C5          C399   1.481       .  S
C7            O9   1.256       .  A
C7           O13   1.263       .  A
C7           C37   1.472       .  S
C11          C85   1.470       .  S
In14         O16   2.266   1_655  S
In14         O17   2.250   1_655  S
In14         O25   2.233       .  S
In14         O19   2.286       .  S
In14         O21   2.236       .  S
In14         O22   2.226       .  S
In14         O23   2.245       .  S
In14         O26   2.289       .  S
C15          O21   1.262       .  A
C15          O23   1.260       .  A
O16          C24   1.261       .  A
O17          C24   1.259       .  A
C18          O25   1.258       .  A
C18          O19   1.257       .  A
C18         C548   1.479       .  S
C20          O22   1.256       .  A
C20          O26   1.263       .  A
C20         C102   1.469       .  S
C24          C46   1.470       .  S
In27         O29   2.295       .  S
In27         O30   2.231       .  S
In27         O38   2.268       .  S
In27         O32   2.264       .  S
In27         O34   2.253       .  S
In27         O35   2.253       .  S
In27         O36   2.249       .  S
In27         O39   2.252   1_565  S
C28          O34   1.261       .  A
C28          O36   1.261       .  A
C28          C41   1.466   1_554  S
O29          C37   1.264       .  A
O30          C37   1.256       .  A
C31          O38   1.257       .  A
C31          O32   1.257       .  A
C31         C423   1.481       .  S
C33          O35   1.261   1_545  A
C33          O39   1.260       .  A
C33          C63   1.467       .  S
In40         O42   2.284   1_565  S
In40         O43   2.229       .  S
In40         O51   2.242       .  S
In40         O45   2.265       .  S
In40         O47   2.260       .  S
In40         O48   2.253       .  S
In40         O49   2.244       .  S
In40         O52   2.268       .  S
C41          O47   1.262       .  A
C41          O49   1.259       .  A
O42          C50   1.263       .  A
O43          C50   1.259   1_565  A
C44          O51   1.256       .  A
C44          O45   1.258       .  A
C44         C644   1.474       .  S
C46          O48   1.258       .  A
C46          O52   1.260       .  A
C50          C72   1.470       .  S
In53         O55   2.255       .  S
In53         O56   2.257       .  S
In53         O64   2.257       .  S
In53         O58   2.272       .  S
In53         O60   2.237       .  S
In53         O61   2.225       .  S
In53         O62   2.265       .  S
In53         O65   2.284   1_455  S
C54          O60   1.259       .  A
C54          O62   1.263       .  A
C54          C67   1.466   1_554  S
O55          C63   1.259       .  A
O56          C63   1.259       .  A
C57          O64   1.257       .  A
C57          O58   1.257       .  A
C57         C327   1.481       .  S
C59          O61   1.257   1_655  A
C59          O65   1.264       .  A
C59          C89   1.467       .  S
In66         O68   2.254   1_455  S
In66         O69   2.255       .  S
In66         O77   2.280       .  S
In66         O71   2.275       .  S
In66         O73   2.241       .  S
In66         O74   2.230       .  S
In66         O75   2.255       .  S
In66         O78   2.297       .  S
C67          O73   1.261       .  A
C67          O75   1.262       .  A
O68          C76   1.261       .  A
O69          C76   1.261   1_455  A
C70          O77   1.259       .  A
C70          O71   1.258       .  A
C70         C572   1.489       .  S
C72          O74   1.254       .  A
C72          O78   1.264       .  A
C76          C98   1.471       .  S
In79         O81   2.284       .  S
In79         O82   2.227       .  S
In79         O90   2.268       .  S
In79         O84   2.270       .  S
In79         O86   2.271       .  S
In79         O87   2.251   1_545  S
In79         O88   2.251       .  S
In79         O91   2.262   1_545  S
C80          O86   1.263       .  A
C80          O88   1.259       .  A
C80          C93   1.472   1_554  S
O81          C89   1.263       .  A
O82          C89   1.257       .  A
C83          O90   1.256       .  A
C83          O84   1.259       .  A
C83         C471   1.486       .  S
C85          O87   1.259       .  A
C85          O91   1.262       .  A
In92         O94   2.293   1_545  S
In92         O95   2.228   1_545  S
In92        O103   2.285       .  S
In92         O97   2.263       .  S
In92         O99   2.268       .  S
In92        O100   2.260       .  S
In92        O101   2.247       .  S
In92        O104   2.258       .  S
C93          O99   1.262       .  A
C93         O101   1.260       .  A
O94         C102   1.263       .  A
O95         C102   1.256       .  A
C96         O103   1.259       .  A
C96          O97   1.258       .  A
C96         C668   1.488       .  S
C98         O100   1.261       .  A
C98         O104   1.261       .  A
In105       O107   2.288       .  S
In105       O108   2.236       .  S
In105       O116   2.279       .  S
In105       O110   2.271       .  S
In105       O112   2.252       .  S
In105       O113   2.257       .  S
In105       O114   2.262       .  S
In105       O117   2.262       .  S
C106        O112   1.261       .  A
C106        O114   1.261       .  A
C106        C119   1.471   1_556  S
O107        C115   1.263       .  A
O108        C115   1.256       .  A
C109        O116   1.259       .  A
C109        O110   1.258       .  A
C109        C555   1.490       .  S
C111        O113   1.261       .  A
C111        O117   1.261       .  A
C111        C141   1.471       .  S
C115        C189   1.470       .  S
In118       O120   2.303       .  S
In118       O121   2.218       .  S
In118       O129   2.260       .  S
In118       O123   2.282       .  S
In118       O125   2.249       .  S
In118       O126   2.264       .  S
In118       O127   2.266       .  S
In118       O130   2.259       .  S
C119        O125   1.261       .  A
C119        O127   1.263       .  A
O120        C128   1.265       .  A
O121        C128   1.254       .  A
C122        O129   1.256       .  A
C122        O123   1.257       .  A
C122        C320   1.482       .  S
C124        O126   1.260       .  A
C124        O130   1.261       .  A
C124        C206   1.473       .  S
C128        C150   1.470       .  S
In131       O133   2.269       .  S
In131       O134   2.256       .  S
In131       O142   2.240       .  S
In131       O136   2.270       .  S
In131       O138   2.251       .  S
In131       O139   2.220       .  S
In131       O140   2.245       .  S
In131       O143   2.273       .  S
C132        O138   1.261       .  A
C132        O140   1.261       .  A
C132        C145   1.465   1_556  S
O133        C141   1.260       .  A
O134        C141   1.258       .  A
C135        O142   1.256       .  A
C135        O136   1.259       .  A
C135        C627   1.476       .  S
C137        O139   1.258       .  A
C137        O143   1.262       .  A
C137        C167   1.462       .  S
In144       O146   2.247       .  S
In144       O147   2.246       .  S
In144       O155   2.262       .  S
In144       O149   2.251       .  S
In144       O151   2.256       .  S
In144       O152   2.223       .  S
In144       O153   2.243       .  S
In144       O156   2.298       .  S
C145        O151   1.261       .  A
C145        O153   1.259       .  A
O146        C154   1.261       .  A
O147        C154   1.261       .  A
C148        O155   1.257       .  A
C148        O149   1.257       .  A
C148        C416   1.475       .  S
C150        O152   1.256       .  A
C150        O156   1.263       .  A
C154        C176   1.464       .  S
In157       O159   2.278       .  S
In157       O160   2.222       .  S
In157       O168   2.240       .  S
In157       O162   2.269       .  S
In157       O164   2.246       .  S
In157       O165   2.242       .  S
In157       O166   2.243       .  S
In157       O169   2.258       .  S
C158        O164   1.261       .  A
C158        O166   1.260       .  A
C158        C171   1.463   1_556  S
O159        C167   1.262       .  A
O160        C167   1.256       .  A
C161        O168   1.257       .  A
C161        O162   1.258       .  A
C161        C531   1.476       .  S
C163        O165   1.260       .  A
C163        O169   1.262       .  A
C163        C193   1.466       .  S
In170       O172   2.292       .  S
In170       O173   2.221       .  S
In170       O181   2.265       .  S
In170       O175   2.262       .  S
In170       O177   2.240       .  S
In170       O178   2.247       .  S
In170       O179   2.247       .  S
In170       O182   2.252       .  S
C171        O177   1.261       .  A
C171        O179   1.262       .  A
O172        C180   1.265       .  A
O173        C180   1.256       .  A
C174        O181   1.258       .  A
C174        O175   1.257       .  A
C174        C392   1.480       .  S
C176        O178   1.259       .  A
C176        O182   1.259       .  A
C180        C202   1.469       .  S
In183       O185   2.259       .  S
In183       O186   2.248       .  S
In183       O194   2.257       .  S
In183       O188   2.264       .  S
In183       O190   2.237       .  S
In183       O191   2.233       .  S
In183       O192   2.248       .  S
In183       O195   2.285       .  S
C184        O190   1.259       .  A
C184        O192   1.262       .  A
C184        C197   1.460   1_556  S
O185        C193   1.259       .  A
O186        C193   1.259       .  A
C187        O194   1.258       .  A
C187        O188   1.257       .  A
C187        C651   1.478       .  S
C189        O191   1.257       .  A
C189        O195   1.263       .  A
In196       O198   2.255       .  S
In196       O199   2.271       .  S
In196       O207   2.268       .  S
In196       O201   2.259       .  S
In196       O203   2.244       .  S
In196       O204   2.229       .  S
In196       O205   2.241       .  S
In196       O208   2.293       .  S
C197        O203   1.261       .  A
C197        O205   1.259       .  A
O198        C206   1.258       .  A
O199        C206   1.262       .  A
C200        O207   1.260       .  A
C200        O201   1.256       .  A
C200        C464   1.481       .  S
C202        O204   1.257       .  A
C202        O208   1.262       .  A
In209       O211   2.258   1_565  S
In209       O212   2.251       .  S
In209       O220   2.257       .  S
In209       O214   2.269       .  S
In209       O216   2.250       .  S
In209       O217   2.217       .  S
In209       O218   2.243       .  S
In209       O221   2.291       .  S
C210        O216   1.262       .  A
C210        O218   1.262       .  A
C210        C223   1.467       .  S
O211        C219   1.261       .  A
O212        C219   1.259   1_565  A
C213        O220   1.258       .  A
C213        O214   1.258       .  A
C213        C692   1.480       .  S
C215        O217   1.255       .  A
C215        O221   1.264       .  A
C215        C258   1.466       .  S
C219        C306   1.468       .  S
In222       O224   2.254       .  S
In222       O225   2.258       .  S
In222       O233   2.266       .  S
In222       O227   2.273       .  S
In222       O229   2.263       .  S
In222       O230   2.232       .  S
In222       O231   2.246       .  S
In222       O234   2.298   1_565  S
C223        O229   1.262       .  A
C223        O231   1.259       .  A
O224        C232   1.260       .  A
O225        C232   1.261       .  A
C226        O233   1.256       .  A
C226        O227   1.256       .  A
C226        C495   1.481       .  S
C228        O230   1.255   1_545  A
C228        O234   1.264       .  A
C228        C297   1.474       .  S
C232        C241   1.468       .  S
In235       O237   2.307       .  S
In235       O238   2.240       .  S
In235       O246   2.275       .  S
In235       O240   2.270       .  S
In235       O242   2.258       .  S
In235       O243   2.254   1_455  S
In235       O244   2.250       .  S
In235       O247   2.255       .  S
C236        O242   1.261       .  A
C236        O244   1.260       .  A
C236        C249   1.467       .  S
O237        C245   1.265       .  A
O238        C245   1.257       .  A
C239        O246   1.258       .  A
C239        O240   1.258       .  A
C239        C375   1.486       .  S
C241        O243   1.260       .  A
C241        O247   1.261   1_655  A
C245        C267   1.481       .  S
In248       O250   2.284       .  S
In248       O251   2.222       .  S
In248       O259   2.221       .  S
In248       O253   2.290       .  S
In248       O255   2.248       .  S
In248       O256   2.254       .  S
In248       O257   2.249       .  S
In248       O260   2.282       .  S
C249        O255   1.261       .  A
C249        O257   1.262       .  A
O250        C258   1.262   1_455  A
O251        C258   1.258   1_455  A
C252        O259   1.257       .  A
C252        O253   1.259       .  A
C252        C524   1.478       .  S
C254        O256   1.257       .  A
C254        O260   1.260       .  A
C254        C284   1.474       .  S
In261       O263   2.248       .  S
In261       O264   2.259       .  S
In261       O272   2.273       .  S
In261       O266   2.282       .  S
In261       O268   2.267       .  S
In261       O269   2.238       .  S
In261       O270   2.249       .  S
In261       O273   2.308   1_545  S
C262        O268   1.264       .  A
C262        O270   1.260       .  A
C262        C275   1.472       .  S
O263        C271   1.259       .  A
O264        C271   1.259       .  A
C265        O272   1.257       .  A
C265        O266   1.257       .  A
C265        C447   1.490       .  S
C267        O269   1.256   1_565  A
C267        O273   1.266       .  A
C271        C293   1.465       .  S
In274       O276   2.276   1_545  S
In274       O277   2.252   1_545  S
In274       O285   2.283       .  S
In274       O279   2.278       .  S
In274       O281   2.258       .  S
In274       O282   2.235       .  S
In274       O283   2.253       .  S
In274       O286   2.294       .  S
C275        O281   1.262       .  A
C275        O283   1.263       .  A
O276        C284   1.261       .  A
O277        C284   1.258       .  A
C278        O285   1.260       .  A
C278        O279   1.258       .  A
C278        C620   1.492       .  S
C280        O282   1.256       .  A
C280        O286   1.263       .  A
C280        C310   1.472       .  S
In287       O289   2.298       .  S
In287       O290   2.238       .  S
In287       O298   2.264       .  S
In287       O292   2.266       .  S
In287       O294   2.253       .  S
In287       O295   2.258   1_655  S
In287       O296   2.257       .  S
In287       O299   2.243   1_655  S
C288        O294   1.259       .  A
C288        O296   1.262       .  A
C288        C301   1.468       .  S
O289        C297   1.263       .  A
O290        C297   1.257       .  A
C291        O298   1.255       .  A
C291        O292   1.256       .  A
C291        C351   1.478       .  S
C293        O295   1.262       .  A
C293        O299   1.259       .  A
In300       O302   2.291   1_655  S
In300       O303   2.235   1_655  S
In300       O311   2.275       .  S
In300       O305   2.260       .  S
In300       O307   2.259       .  S
In300       O308   2.257       .  S
In300       O309   2.246       .  S
In300       O312   2.260       .  S
C301        O307   1.263       .  A
C301        O309   1.260       .  A
O302        C310   1.263       .  A
O303        C310   1.257       .  A
C304        O311   1.257       .  A
C304        O305   1.258       .  A
C304        C596   1.483       .  S
C306        O308   1.259       .  A
C306        O312   1.258       .  A
C313        C314   1.546       .  S
C313        C319   1.542       .  S
C313        C317   1.543       .  S
C313       C1272   1.554       .  S
C314        H321   1.087       .  S
C314        C315   1.374       .  D
C315       C1252   1.515       .  S
C315        C316   1.542       .  S
C316        C320   1.536       .  S
C316        C318   1.543       .  S
C316        H322   1.105       .  S
C317        H323   1.080       .  S
C317        C318   1.365       .  D
C318       C1262   1.482       .  S
C319        H324   1.087       .  S
C319        C320   1.366       .  D
C325        C326   1.541       .  S
C325        C331   1.547       .  S
C325        C329   1.543       .  S
C325       C1275   1.549       .  S
C326        H333   1.085       .  S
C326        C327   1.367       .  D
C327        C328   1.535       .  S
C328        C332   1.541       .  S
C328        C330   1.541       .  S
C328        H334   1.106       .  S
C329        H335   1.082       .  S
C329        C330   1.361       .  D
C330       C1242   1.481       .  S
C331        H336   1.085       .  S
C331        C332   1.374       .  D
C332       C1232   1.507       .  S
C337        C338   1.530       .  S
C337        C343   1.535       .  S
C337        C341   1.553       .  S
C337       C1222   1.541       .  S
C338        H345   1.089       .  S
C338        C339   1.351       .  D
C339       C1202   1.473       .  S
C339        C340   1.541       .  S
C340        C344   1.540       .  S
C340        C342   1.545       .  S
C340        H346   1.108       .  S
C341        H347   1.081       .  S
C341        C342   1.380       .  D
C342       C1215   1.509       .  S
C343        H348   1.083       .  S
C343        C344   1.362       .  D
C344        C792   1.479       .  S
C349        C350   1.536       .  S
C349        C355   1.551       .  S
C349        C353   1.535       .  S
C349       C1225   1.544       .  S
C350        H357   1.084       .  S
C350        C351   1.364       .  D
C351        C352   1.537       .  S
C352        C356   1.542       .  S
C352        C354   1.547       .  S
C352        H358   1.106       .  S
C353        H359   1.081       .  S
C353        C354   1.359       .  D
C354       C1245   1.481       .  S
C355        H360   1.084       .  S
C355        C356   1.377       .  D
C356       C1195   1.510       .  S
C361        C362   1.545       .  S
C361        C367   1.538       .  S
C361        C365   1.533       .  S
C361       C1182   1.543       .  S
C362        H369   1.086       .  S
C362        C363   1.375       .  D
C363       C1172   1.507       .  S
C363        C364   1.543       .  S
C364        C368   1.538       .  S
C364        C366   1.548       .  S
C364        H370   1.104       .  S
C365        H371   1.082       .  S
C365        C366   1.357       .  D
C366       C1265   1.478       .  S
C367        H372   1.087       .  S
C367        C368   1.365       .  D
C368        C740   1.482       .  S
C373        C374   1.538       .  S
C373        C379   1.548       .  S
C373        C377   1.539       .  S
C373       C1185   1.549       .  S
C374        H381   1.087       .  S
C374        C375   1.365       .  D
C375        C376   1.539       .  S
C376        C380   1.541       .  S
C376        C378   1.550       .  S
C376        H382   1.103       .  S
C377        H383   1.083       .  S
C377        C378   1.360       .  D
C378       C1162   1.485       .  S
C379        H384   1.086       .  S
C379        C380   1.379       .  D
C380       C1155   1.515       .  S
C385        C386   1.548       .  S
C385        C391   1.537       .  S
C385        C389   1.548       .  S
C385       C1142   1.546       .  S
C386        H393   1.086       .  S
C386        C387   1.363       .  D
C387       C1132   1.485       .  S
C387        C388   1.529       .  S
C388        C392   1.541       .  S
C388        C390   1.545       .  S
C388        H394   1.111       .  S
C389        H395   1.078       .  S
C389        C390   1.370       .  D
C390       C1212   1.498       .  S
C391        H396   1.085       .  S
C391        C392   1.364       .  D
C397        C398   1.542       .  S
C397        C403   1.546       .  S
C397        C401   1.540       .  S
C397       C1145   1.550       .  S
C398        H405   1.086       .  S
C398        C399   1.369       .  D
C399        C400   1.536       .  S
C400        C404   1.535       .  S
C400        C402   1.543       .  S
C400        H406   1.107       .  S
C401        H407   1.081       .  S
C401        C402   1.363       .  D
C402       C1165   1.483       .  S
C403        H408   1.087       .  S
C403        C404   1.371       .  D
C404       C1122   1.497       .  S
C409        C410   1.540       .  S
C409        C415   1.533       .  S
C409        C413   1.550       .  S
C409       C1112   1.542       .  S
C410        H417   1.085       .  S
C410        C411   1.361       .  D
C411       C1175   1.485       .  S
C411        C412   1.542       .  S
C412        C416   1.539       .  S
C412        C414   1.539       .  S
C412        H418   1.109       .  S
C413        H419   1.082       .  S
C413        C414   1.375       .  D
C414       C1102   1.499       .  S
C415        H420   1.084       .  S
C415        C416   1.363       .  D
C421        C422   1.537       .  S
C421        C427   1.538       .  S
C421        C425   1.547       .  S
C421       C1115   1.548       .  S
C422        H429   1.084       .  S
C422        C423   1.367       .  D
C423        C424   1.542       .  S
C424        C428   1.545       .  S
C424        C426   1.542       .  S
C424        H430   1.110       .  S
C425        H431   1.080       .  S
C425        C426   1.372       .  D
C426       C1092   1.500       .  S
C427        H432   1.086       .  S
C427        C428   1.360       .  D
C428       C1152   1.490       .  S
C433        C434   1.536       .  S
C433        C439   1.532       .  S
C433        C437   1.555       .  S
C433       C1082   1.547       .  S
C434        H441   1.087       .  S
C434        C435   1.355       .  D
C435       C1255   1.492       .  S
C435        C436   1.547       .  S
C436        C440   1.545       .  S
C436        C438   1.545       .  S
C436        H442   1.109       .  S
C437        H443   1.081       .  S
C437        C438   1.378       .  D
C438       C1072   1.509       .  S
C439        H444   1.083       .  S
C439        C440   1.365       .  D
C440        C714   1.480       .  S
C445        C446   1.540       .  S
C445        C451   1.544       .  S
C445        C449   1.552       .  S
C445       C1085   1.549       .  S
C446        H453   1.086       .  S
C446        C447   1.367       .  D
C447        C448   1.545       .  S
C448        C452   1.537       .  S
C448        C450   1.543       .  S
C448        H454   1.111       .  S
C449        H455   1.078       .  S
C449        C450   1.371       .  D
C450       C1095   1.500       .  S
C451        H456   1.084       .  S
C451        C452   1.362       .  D
C452       C1235   1.493       .  S
C457        C458   1.545       .  S
C457        C463   1.540       .  S
C457        C461   1.546       .  S
C457       C1062   1.548       .  S
C458        H465   1.084       .  S
C458        C459   1.365       .  D
C459       C1205   1.489       .  S
C459        C460   1.530       .  S
C460        C464   1.538       .  S
C460        C462   1.545       .  S
C460        H466   1.110       .  S
C461        H467   1.079       .  S
C461        C462   1.367       .  D
C462       C1075   1.493       .  S
C463        H468   1.087       .  S
C463        C464   1.368       .  D
C469        C470   1.535       .  S
C469        C475   1.546       .  S
C469        C473   1.548       .  S
C469       C1065   1.547       .  S
C470        H477   1.084       .  S
C470        C471   1.362       .  D
C471        C472   1.548       .  S
C472        C476   1.536       .  S
C472        C474   1.553       .  S
C472        H478   1.111       .  S
C473        H479   1.073       .  S
C473        C474   1.372       .  D
C474       C1055   1.508       .  S
C475        H480   1.086       .  S
C475        C476   1.361       .  D
C476       C1192   1.494       .  S
C481        C482   1.546       .  S
C481        C487   1.540       .  S
C481        C485   1.541       .  S
C481       C1042   1.544       .  S
C482        H489   1.086       .  S
C482        C483   1.364       .  D
C483       C1135   1.484       .  S
C483        C484   1.529       .  S
C484        C488   1.539       .  S
C484        C486   1.543       .  S
C484        H490   1.111       .  S
C485        H491   1.079       .  S
C485        C486   1.363       .  D
C486       C1105   1.483       .  S
C487        H492   1.086       .  S
C487        C488   1.368       .  D
C488        C753   1.480       .  S
C493        C494   1.536       .  S
C493        C499   1.535       .  S
C493        C497   1.557       .  S
C493       C1045   1.550       .  S
C494        H501   1.084       .  S
C494        C495   1.363       .  D
C495        C496   1.537       .  S
C496        C500   1.540       .  S
C496        C498   1.543       .  S
C496        H502   1.105       .  S
C497        H503   1.083       .  S
C497        C498   1.385       .  D
C498       C1052   1.518       .  S
C499        H504   1.086       .  S
C499        C500   1.354       .  D
C500       C1125   1.476       .  S
C505        C506   1.528       .  S
C505        C511   1.538       .  S
C505        C509   1.554       .  S
C505       C1032   1.543       .  S
C506        H513   1.088       .  S
C506        C507   1.364       .  D
C507        C727   1.465       .  S
C507        C508   1.535       .  S
C508        C512   1.536       .  S
C508        C510   1.539       .  S
C508        H514   1.106       .  S
C509        H515   1.085       .  S
C509        C510   1.385       .  D
C510       C1022   1.506       .  S
C511        H516   1.081       .  S
C511        C512   1.343       .  D
C512       C1012   1.481       .  S
C517        C518   1.534       .  S
C517        C523   1.547       .  S
C517        C521   1.545       .  S
C517       C1035   1.549       .  S
C518        H525   1.079       .  S
C518        C519   1.335       .  D
C519        C992   1.469       .  S
C519        C520   1.529       .  S
C520        C524   1.543       .  S
C520        C522   1.531       .  S
C520        H526   1.103       .  S
C521        H527   1.083       .  S
C521        C522   1.378       .  D
C522       C1005   1.504       .  S
C523        H528   1.083       .  S
C523        C524   1.380       .  D
C529        C530   1.551       .  S
C529        C535   1.537       .  S
C529        C533   1.541       .  S
C529        C982   1.554       .  S
C530        H537   1.084       .  S
C530        C531   1.377       .  D
C531        C532   1.543       .  S
C532        C536   1.525       .  S
C532        C534   1.540       .  S
C532        H538   1.111       .  S
C533        H539   1.085       .  S
C533        C534   1.363       .  D
C534        C972   1.498       .  S
C535        H540   1.087       .  S
C535        C536   1.353       .  D
C536        C962   1.471       .  S
C541        C542   1.539       .  S
C541        C547   1.559       .  S
C541        C545   1.542       .  S
C541        C985   1.556       .  S
C542        H549   1.089       .  S
C542        C543   1.349       .  D
C543        C952   1.473       .  S
C543        C544   1.518       .  S
C544        C548   1.539       .  S
C544        C546   1.544       .  S
C544        H550   1.109       .  S
C545        H551   1.082       .  S
C545        C546   1.363       .  D
C546       C1002   1.505       .  S
C547        H552   1.084       .  S
C547        C548   1.382       .  D
C553        C554   1.540       .  S
C553        C559   1.543       .  S
C553        C557   1.549       .  S
C553        C945   1.544       .  S
C554        H561   1.087       .  S
C554        C555   1.365       .  D
C555        C556   1.544       .  S
C556        C560   1.535       .  S
C556        C558   1.551       .  S
C556        H562   1.111       .  S
C557        H563   1.075       .  S
C557        C558   1.367       .  D
C558       C1025   1.501       .  S
C559        H564   1.085       .  S
C559        C560   1.359       .  D
C560        C932   1.484       .  S
C565        C566   1.530       .  S
C565        C571   1.542       .  S
C565        C569   1.554       .  S
C565        C942   1.547       .  S
C566        H573   1.086       .  S
C566        C567   1.349       .  D
C567        C915   1.479       .  S
C567        C568   1.544       .  S
C568        C572   1.542       .  S
C568        C570   1.544       .  S
C568        H574   1.109       .  S
C569        H575   1.080       .  S
C569        C570   1.377       .  D
C570        C922   1.508       .  S
C571        H576   1.084       .  S
C571        C572   1.369       .  D
C577        C578   1.524       .  S
C577        C583   1.540       .  S
C577        C581   1.547       .  S
C577        C902   1.534       .  S
C578        H585   1.084       .  S
C578        C579   1.359       .  D
C579        C779   1.475       .  S
C579        C580   1.548       .  S
C580        C584   1.545       .  S
C580        C582   1.539       .  S
C580        H586   1.110       .  S
C581        H587   1.083       .  S
C581        C582   1.376       .  D
C582        C975   1.495       .  S
C583        H588   1.086       .  S
C583        C584   1.362       .  D
C584        C892   1.491       .  S
C589        C590   1.546       .  S
C589        C595   1.534       .  S
C589        C593   1.540       .  S
C589        C905   1.541       .  S
C590        H597   1.086       .  S
C590        C591   1.366       .  D
C591        C882   1.500       .  S
C591        C592   1.537       .  S
C592        C596   1.545       .  S
C592        C594   1.551       .  S
C592        H598   1.110       .  S
C593        H599   1.079       .  S
C593        C594   1.366       .  D
C594        C925   1.492       .  S
C595        H600   1.087       .  S
C595        C596   1.363       .  D
C601        C602   1.536       .  S
C601        C607   1.551       .  S
C601        C605   1.536       .  S
C601        C875   1.544       .  S
C602        H609   1.083       .  S
C602        C603   1.365       .  D
C603        C701   1.477       .  S
C603        C604   1.538       .  S
C604        C608   1.537       .  S
C604        C606   1.541       .  S
C604        H610   1.108       .  S
C605        H611   1.083       .  S
C605        C606   1.359       .  D
C606        C862   1.470       .  S
C607        H612   1.085       .  S
C607        C608   1.376       .  D
C608        C935   1.505       .  S
C613        C614   1.543       .  S
C613        C619   1.543       .  S
C613        C617   1.545       .  S
C613        C872   1.549       .  S
C614        H621   1.088       .  S
C614        C615   1.365       .  D
C615        C912   1.503       .  S
C615        C616   1.539       .  S
C616        C620   1.542       .  S
C616        C618   1.548       .  S
C616        H622   1.110       .  S
C617        H623   1.062       .  S
C617        C618   1.369       .  D
C618        C855   1.489       .  S
C619        H624   1.088       .  S
C619        C620   1.368       .  D
C625        C626   1.538       .  S
C625        C631   1.552       .  S
C625        C629   1.534       .  S
C625        C842   1.545       .  S
C626        H633   1.085       .  S
C626        C627   1.365       .  D
C627        C628   1.536       .  S
C628        C632   1.536       .  S
C628        C630   1.545       .  S
C628        H634   1.104       .  S
C629        H635   1.083       .  S
C629        C630   1.356       .  D
C630        C832   1.479       .  S
C631        H636   1.085       .  S
C631        C632   1.379       .  D
C632       C1015   1.507       .  S
C637        C638   1.534       .  S
C637        C643   1.536       .  S
C637        C641   1.556       .  S
C637        C845   1.543       .  S
C638        H645   1.088       .  S
C638        C639   1.354       .  D
C639        C995   1.465       .  S
C639        C640   1.530       .  S
C640        C644   1.531       .  S
C640        C642   1.535       .  S
C640        H646   1.101       .  S
C641        H647   1.081       .  S
C641        C642   1.385       .  D
C642        C852   1.506       .  S
C643        H648   1.087       .  S
C643        C644   1.359       .  D
C649        C650   1.541       .  S
C649        C655   1.545       .  S
C649        C653   1.536       .  S
C649        C822   1.547       .  S
C650        H657   1.087       .  S
C650        C651   1.367       .  D
C651        C652   1.535       .  S
C652        C656   1.542       .  S
C652        C654   1.543       .  S
C652        H658   1.104       .  S
C653        H659   1.079       .  S
C653        C654   1.360       .  D
C654        C865   1.472       .  S
C655        H660   1.088       .  S
C655        C656   1.374       .  D
C656        C895   1.514       .  S
C661        C662   1.537       .  S
C661        C667   1.539       .  S
C661        C665   1.547       .  S
C661        C825   1.549       .  S
C662        H669   1.086       .  S
C662        C663   1.356       .  D
C663        C885   1.482       .  S
C663        C664   1.544       .  S
C664        C668   1.542       .  S
C664        C666   1.547       .  S
C664        H670   1.109       .  S
C665        H671   1.079       .  S
C665        C666   1.377       .  D
C666        C812   1.503       .  S
C667        H672   1.086       .  S
C667        C668   1.366       .  D
C673        C674   1.538       .  S
C673        C679   1.551       .  S
C673        C677   1.540       .  S
C673        C802   1.545       .  S
C674        H681   1.086       .  S
C674        C675   1.368       .  D
C675        C766   1.476       .  S
C675        C676   1.538       .  S
C676        C680   1.527       .  S
C676        C678   1.541       .  S
C676        H682   1.111       .  S
C677        H683   1.084       .  S
C677        C678   1.361       .  D
C678        C835   1.482       .  S
C679        H684   1.085       .  S
C679        C680   1.369       .  D
C680        C965   1.486       .  S
C685        C686   1.550       .  S
C685        C691   1.540       .  S
C685        C689   1.545       .  S
C685        C805   1.546       .  S
C686        H693   1.085       .  S
C686        C687   1.364       .  D
C687        C955   1.482       .  S
C687        C688   1.525       .  S
C688        C692   1.537       .  S
C688        C690   1.545       .  S
C688        H694   1.111       .  S
C689        H695   1.079       .  S
C689        C690   1.367       .  D
C690        C815   1.491       .  S
C691        H696   1.084       .  S
C691        C692   1.366       .  D
In697       O699   2.284       .  S
In697       O700   2.219       .  S
In697       O708   2.261       .  S
In697       O702   2.257       .  S
In697       O704   2.252       .  S
In697       O705   2.241       .  S
In697       O706   2.252       .  S
In697       O709   2.255       .  S
C698        O704   1.261       .  A
C698        O706   1.261       .  A
C698        C711   1.469       .  S
O699        C707   1.264       .  A
O700        C707   1.257       .  A
C701        O708   1.257       .  A
C701        O702   1.258       .  A
C703        O705   1.258       .  A
C703        O709   1.260       .  A
C703        C785   1.462       .  S
C707        C729   1.466       .  S
In710       O712   2.283       .  S
In710       O713   2.220       .  S
In710       O721   2.264       .  S
In710       O715   2.261       .  S
In710       O717   2.253       .  S
In710       O718   2.245       .  S
In710       O719   2.258       .  S
In710       O722   2.246       .  S
C711        O717   1.261       .  A
C711        O719   1.262       .  A
O712        C720   1.264       .  A
O713        C720   1.256       .  A
C714        O721   1.255       .  A
C714        O715   1.258       .  A
C716        O718   1.260       .  A
C716        O722   1.261       .  A
C716        C746   1.460       .  S
C720        C794   1.465       .  S
In723       O725   2.233       .  S
In723       O726   2.257       .  S
In723       O734   2.232       .  S
In723       O728   2.250       .  S
In723       O730   2.264       .  S
In723       O731   2.219       .  S
In723       O732   2.219       .  S
In723       O735   2.282       .  S
C724        O730   1.265       .  A
C724        O732   1.257       .  A
C724        C737   1.461       .  S
O725        C733   1.256       .  A
O726        C733   1.259       .  A
C727        O734   1.256       .  A
C727        O728   1.256       .  A
C729        O731   1.258       .  A
C729        O735   1.264       .  A
C733        C768   1.458       .  S
In736       O738   2.237       .  S
In736       O739   2.242       .  S
In736       O747   2.270       .  S
In736       O741   2.263       .  S
In736       O743   2.253       .  S
In736       O744   2.232       .  S
In736       O745   2.236       .  S
In736       O748   2.305       .  S
C737        O743   1.259       .  A
C737        O745   1.261       .  A
O738        C746   1.260       .  A
O739        C746   1.262       .  A
C740        O747   1.258       .  A
C740        O741   1.257       .  A
C742        O744   1.255       .  A
C742        O748   1.264       .  A
C742        C759   1.474       .  S
In749       O751   2.296       .  S
In749       O752   2.229       .  S
In749       O760   2.264       .  S
In749       O754   2.262       .  S
In749       O756   2.246       .  S
In749       O757   2.249       .  S
In749       O758   2.252       .  S
In749       O761   2.250       .  S
C750        O756   1.259       .  A
C750        O758   1.261       .  A
C750        C763   1.463       .  S
O751        C759   1.264       .  A
O752        C759   1.257       .  A
C753        O760   1.258       .  A
C753        O754   1.256       .  A
C755        O757   1.261       .  A
C755        O761   1.259       .  A
C755        C798   1.463       .  S
In762       O764   2.287       .  S
In762       O765   2.216       .  S
In762       O773   2.247       .  S
In762       O767   2.265       .  S
In762       O769   2.246       .  S
In762       O770   2.247       .  S
In762       O771   2.242       .  S
In762       O774   2.232       .  S
C763        O769   1.262       .  A
C763        O771   1.261       .  A
O764        C772   1.263       .  A
O765        C772   1.255       .  A
C766        O773   1.257       .  A
C766        O767   1.258       .  A
C768        O770   1.261       .  A
C768        O774   1.260       .  A
C772        C781   1.463       .  S
In775       O777   2.252       .  S
In775       O778   2.239       .  S
In775       O786   2.266       .  S
In775       O780   2.243       .  S
In775       O782   2.278       .  S
In775       O783   2.210       .  S
In775       O784   2.245       .  S
In775       O787   2.282       .  S
C776        O782   1.264       .  A
C776        O784   1.259       .  A
C776        C789   1.474       .  S
O777        C785   1.260       .  A
O778        C785   1.259       .  A
C779        O786   1.255       .  A
C779        O780   1.260       .  A
C781        O783   1.257       .  A
C781        O787   1.264       .  A
In788       O790   2.251       .  S
In788       O791   2.245       .  S
In788       O799   2.262       .  S
In788       O793   2.263       .  S
In788       O795   2.272       .  S
In788       O796   2.220       .  S
In788       O797   2.253       .  S
In788       O800   2.284       .  S
C789        O795   1.262       .  A
C789        O797   1.261       .  A
O790        C798   1.261       .  A
O791        C798   1.259       .  A
C792        O799   1.255       .  A
C792        O793   1.258       .  A
C794        O796   1.257       .  A
C794        O800   1.264       .  A
C801        C802   1.420       .  A
C801        C806   1.417       .  A
C801       Br808   1.937       .  S
C802        C803   1.417       .  A
C803        C804   1.408       .  A
C803       Br810   1.930       .  S
C804        C805   1.418       .  A
C804       Br809   1.936       .  S
C805        C806   1.421       .  A
C806       Br807   1.934       .  S
C811        C812   1.418       .  A
C811        C816   1.404   1_545  A
C811       Br818   1.919       .  S
C812        C813   1.418   1_545  A
C813        C814   1.412       .  A
C813       Br820   1.933       .  S
C814        C815   1.415       .  A
C814       Br819   1.936       .  S
C815        C816   1.404       .  A
C816       Br817   1.934   1_565  S
C821        C822   1.415       .  A
C821        C826   1.419       .  A
C821       Br828   1.934       .  S
C822        C823   1.412       .  A
C823        C824   1.406       .  A
C823       Br830   1.928       .  S
C824        C825   1.424       .  A
C824       Br829   1.939       .  S
C825        C826   1.423       .  A
C826       Br827   1.929       .  S
C831        C832   1.408       .  A
C831        C836   1.405       .  A
C831       Br838   1.930       .  S
C832        C833   1.406       .  A
C833        C834   1.409       .  A
C833       Br840   1.929       .  S
C834        C835   1.415       .  A
C834       Br839   1.935       .  S
C835        C836   1.406       .  A
C836       Br837   1.927       .  S
C841        C842   1.420       .  A
C841        C846   1.417       .  A
C841       Br848   1.935       .  S
C842        C843   1.411       .  A
C843        C844   1.405       .  A
C843       Br850   1.926       .  S
C844        C845   1.425       .  A
C844       Br849   1.940       .  S
C845        C846   1.416       .  A
C846       Br847   1.928       .  S
C851        C852   1.417       .  A
C851        C856   1.414   1_565  A
C851       Br858   1.932   1_565  S
C852        C853   1.423       .  A
C853        C854   1.396       .  A
C853       Br860   1.931       .  S
C854        C855   1.400   1_565  A
C854       Br859   1.930       .  S
C855        C856   1.416       .  A
C856       Br857   1.932       .  S
C861        C862   1.405       .  A
C861        C866   1.402       .  A
C861       Br868   1.927       .  S
C862        C863   1.408       .  A
C863        C864   1.405       .  A
C863       Br870   1.934       .  S
C864        C865   1.408       .  A
C864       Br869   1.927       .  S
C865        C866   1.408       .  A
C866       Br867   1.933       .  S
C871        C872   1.418       .  A
C871        C876   1.419       .  A
C871       Br878   1.931       .  S
C872        C873   1.417       .  A
C873        C874   1.405       .  A
C873       Br880   1.927       .  S
C874        C875   1.414       .  A
C874       Br879   1.926       .  S
C875        C876   1.421       .  A
C876       Br877   1.936       .  S
C881        C882   1.414       .  A
C881        C886   1.405       .  A
C881       Br888   1.926       .  S
C882        C883   1.418       .  A
C883        C884   1.411       .  A
C883       Br890   1.919       .  S
C884        C885   1.405       .  A
C884       Br889   1.932       .  S
C885        C886   1.409       .  A
C886       Br887   1.938       .  S
C891        C892   1.408       .  A
C891        C896   1.416       .  A
C891       Br898   1.933       .  S
C892        C893   1.412       .  A
C893        C894   1.404       .  A
C893       Br900   1.940       .  S
C894        C895   1.414       .  A
C894       Br899   1.929       .  S
C895        C896   1.426       .  A
C896       Br897   1.926       .  S
C901        C902   1.416       .  A
C901        C906   1.402       .  A
C901       Br908   1.938       .  S
C902        C903   1.415       .  A
C903        C904   1.415       .  A
C903       Br910   1.927       .  S
C904        C905   1.416       .  A
C904       Br909   1.931       .  S
C905        C906   1.418       .  A
C906       Br907   1.929       .  S
C911        C912   1.421       .  A
C911        C916   1.411       .  A
C911       Br918   1.917       .  S
C912        C913   1.416       .  A
C913        C914   1.402       .  A
C913       Br920   1.922       .  S
C914        C915   1.410       .  A
C914       Br919   1.943       .  S
C915        C916   1.402       .  A
C916       Br917   1.933       .  S
C921        C922   1.420       .  A
C921        C926   1.407       .  A
C921       Br928   1.916       .  S
C922        C923   1.419       .  A
C923        C924   1.413   1_455  A
C923       Br930   1.932       .  S
C924        C925   1.415       .  A
C924       Br929   1.937       .  S
C925        C926   1.404   1_655  A
C926       Br927   1.935       .  S
C931        C932   1.405       .  A
C931        C936   1.401       .  A
C931       Br938   1.920       .  S
C932        C933   1.408       .  A
C933        C934   1.413       .  A
C933       Br940   1.930       .  S
C934        C935   1.419       .  A
C934       Br939   1.920       .  S
C935        C936   1.407       .  A
C936       Br937   1.921       .  S
C941        C942   1.421       .  A
C941        C946   1.406       .  A
C941       Br948   1.938       .  S
C942        C943   1.416       .  A
C943        C944   1.417       .  A
C943       Br950   1.928       .  S
C944        C945   1.419       .  A
C944       Br949   1.933       .  S
C945        C946   1.421       .  A
C946       Br947   1.940       .  S
C951        C952   1.406       .  A
C951        C956   1.404       .  A
C951       Br958   1.930       .  S
C952        C953   1.405       .  A
C953        C954   1.406       .  A
C953       Br960   1.927       .  S
C954        C955   1.411       .  A
C954       Br959   1.926       .  S
C955        C956   1.408       .  A
C956       Br957   1.915       .  S
C961        C962   1.407       .  A
C961        C966   1.405       .  A
C961       Br968   1.919       .  S
C962        C963   1.402       .  A
C963        C964   1.401       .  A
C963       Br970   1.930       .  S
C964        C965   1.409       .  A
C964       Br969   1.907       .  S
C965        C966   1.409       .  A
C966       Br967   1.927       .  S
C971        C972   1.411       .  A
C971        C976   1.409       .  A
C971       Br978   1.934       .  S
C972        C973   1.418       .  A
C973        C974   1.404       .  A
C973       Br980   1.922       .  S
C974        C975   1.407       .  A
C974       Br979   1.935       .  S
C975        C976   1.416       .  A
C976       Br977   1.915       .  S
C981        C982   1.429       .  A
C981        C986   1.402       .  A
C981       Br988   1.953       .  S
C982        C983   1.424       .  A
C983        C984   1.427       .  A
C983       Br990   1.933       .  S
C984        C985   1.421       .  A
C984       Br989   1.928       .  S
C985        C986   1.429       .  A
C986       Br987   1.956       .  S
C991        C992   1.415       .  A
C991        C996   1.394       .  A
C991       Br998   1.934       .  S
C992        C993   1.410       .  A
C993        C994   1.404       .  A
C993      Br1000   1.934       .  S
C994        C995   1.412       .  A
C994       Br999   1.932       .  S
C995        C996   1.399       .  A
C996       Br997   1.929       .  S
C1001      C1002   1.423       .  A
C1001      C1006   1.414   1_655  A
C1001     Br1008   1.926       .  S
C1002      C1003   1.404   1_655  A
C1003      C1004   1.395       .  A
C1003     Br1010   1.931       .  S
C1004      C1005   1.420       .  A
C1004     Br1009   1.930       .  S
C1005      C1006   1.416       .  A
C1006     Br1007   1.934       .  S
C1011      C1012   1.411       .  A
C1011      C1016   1.400       .  A
C1011     Br1018   1.940       .  S
C1012      C1013   1.404       .  A
C1013      C1014   1.412       .  A
C1013     Br1020   1.931       .  S
C1014      C1015   1.424       .  A
C1014     Br1019   1.925       .  S
C1015      C1016   1.412       .  A
C1016     Br1017   1.923       .  S
C1021      C1022   1.418       .  A
C1021      C1026   1.419       .  A
C1021     Br1028   1.934       .  S
C1022      C1023   1.422       .  A
C1023      C1024   1.396       .  A
C1023     Br1030   1.923       .  S
C1024      C1025   1.400       .  A
C1024     Br1029   1.930       .  S
C1025      C1026   1.420       .  A
C1026     Br1027   1.928       .  S
C1031      C1032   1.421       .  A
C1031      C1036   1.433       .  A
C1031     Br1038   1.922       .  S
C1032      C1033   1.404       .  A
C1033      C1034   1.371       .  A
C1033     Br1040   1.932       .  S
C1034      C1035   1.411       .  A
C1034     Br1039   1.941       .  S
C1035      C1036   1.427       .  A
C1036     Br1037   1.918       .  S
C1041      C1042   1.416       .  A
C1041      C1046   1.417       .  A
C1041     Br1048   1.935       .  S
C1042      C1043   1.416       .  A
C1043      C1044   1.407       .  A
C1043     Br1050   1.934       .  S
C1044      C1045   1.424       .  A
C1044     Br1049   1.939       .  S
C1045      C1046   1.418       .  A
C1046     Br1047   1.925       .  S
C1051      C1052   1.418       .  A
C1051      C1056   1.417   1_565  A
C1051     Br1058   1.934       .  S
C1052      C1053   1.425       .  A
C1053      C1054   1.407       .  A
C1053     Br1060   1.924       .  S
C1054      C1055   1.406   1_565  A
C1054     Br1059   1.935       .  S
C1055      C1056   1.421       .  A
C1056     Br1057   1.933       .  S
C1061      C1062   1.414       .  A
C1061      C1066   1.405       .  A
C1061     Br1068   1.926       .  S
C1062      C1063   1.416       .  A
C1063      C1064   1.419       .  A
C1063     Br1070   1.933       .  S
C1064      C1065   1.423       .  A
C1064     Br1069   1.932       .  S
C1065      C1066   1.423       .  A
C1066     Br1067   1.941       .  S
C1071      C1072   1.419       .  A
C1071      C1076   1.416       .  A
C1071     Br1078   1.931       .  S
C1072      C1073   1.419       .  A
C1073      C1074   1.405       .  A
C1073     Br1080   1.915       .  S
C1074      C1075   1.405       .  A
C1074     Br1079   1.934       .  S
C1075      C1076   1.415       .  A
C1076     Br1077   1.936       .  S
C1081      C1082   1.419       .  A
C1081      C1086   1.407       .  A
C1081     Br1088   1.937       .  S
C1082      C1083   1.415       .  A
C1083      C1084   1.419       .  A
C1083     Br1090   1.928       .  S
C1084      C1085   1.419       .  A
C1084     Br1089   1.930       .  S
C1085      C1086   1.420       .  A
C1086     Br1087   1.935       .  S
C1091      C1092   1.413       .  A
C1091      C1096   1.406       .  A
C1091     Br1098   1.920       .  S
C1092      C1093   1.415       .  A
C1093      C1094   1.412   1_565  A
C1093     Br1100   1.934       .  S
C1094      C1095   1.416       .  A
C1094     Br1099   1.926       .  S
C1095      C1096   1.409   1_545  A
C1096     Br1097   1.928       .  S
C1101      C1102   1.417       .  A
C1101      C1106   1.410       .  A
C1101     Br1108   1.931       .  S
C1102      C1103   1.419       .  A
C1103      C1104   1.401       .  A
C1103     Br1110   1.915       .  S
C1104      C1105   1.400       .  A
C1104     Br1109   1.935       .  S
C1105      C1106   1.413       .  A
C1106     Br1107   1.937       .  S
C1111      C1112   1.412       .  A
C1111      C1116   1.416       .  A
C1111     Br1118   1.930       .  S
C1112      C1113   1.416       .  A
C1113      C1114   1.407       .  A
C1113     Br1120   1.935       .  S
C1114      C1115   1.422       .  A
C1114     Br1119   1.937       .  S
C1115      C1116   1.423       .  A
C1116     Br1117   1.930       .  S
C1121      C1122   1.410       .  A
C1121      C1126   1.399       .  A
C1121     Br1128   1.923       .  S
C1122      C1123   1.418       .  A
C1123      C1124   1.410       .  A
C1123     Br1130   1.922       .  S
C1124      C1125   1.405       .  A
C1124     Br1129   1.930       .  S
C1125      C1126   1.410       .  A
C1126     Br1127   1.936       .  S
C1131      C1132   1.410       .  A
C1131      C1136   1.406       .  A
C1131     Br1138   1.916       .  S
C1132      C1133   1.408       .  A
C1133      C1134   1.408       .  A
C1133     Br1140   1.929       .  S
C1134      C1135   1.409       .  A
C1134     Br1139   1.916       .  S
C1135      C1136   1.406       .  A
C1136     Br1137   1.930       .  S
C1141      C1142   1.417       .  A
C1141      C1146   1.418       .  A
C1141     Br1148   1.933       .  S
C1142      C1143   1.418       .  A
C1143      C1144   1.407       .  A
C1143     Br1150   1.935       .  S
C1144      C1145   1.416       .  A
C1144     Br1149   1.925       .  S
C1145      C1146   1.420       .  A
C1146     Br1147   1.932       .  S
C1151      C1152   1.410       .  A
C1151      C1156   1.401       .  A
C1151     Br1158   1.940       .  S
C1152      C1153   1.409       .  A
C1153      C1154   1.417       .  A
C1153     Br1160   1.930       .  S
C1154      C1155   1.427       .  A
C1154     Br1159   1.928       .  S
C1155      C1156   1.413       .  A
C1156     Br1157   1.922       .  S
C1161      C1162   1.409       .  A
C1161      C1166   1.407       .  A
C1161     Br1168   1.931       .  S
C1162      C1163   1.409       .  A
C1163      C1164   1.410   1_455  A
C1163     Br1170   1.927   1_455  S
C1164      C1165   1.413       .  A
C1164     Br1169   1.933       .  S
C1165      C1166   1.407   1_655  A
C1166     Br1167   1.928       .  S
C1171      C1172   1.412       .  A
C1171      C1176   1.403       .  A
C1171     Br1178   1.926       .  S
C1172      C1173   1.421       .  A
C1173      C1174   1.412       .  A
C1173     Br1180   1.928       .  S
C1174      C1175   1.408       .  A
C1174     Br1179   1.927       .  S
C1175      C1176   1.411       .  A
C1176     Br1177   1.937       .  S
C1181      C1182   1.419       .  A
C1181      C1186   1.416       .  A
C1181     Br1188   1.934       .  S
C1182      C1183   1.413       .  A
C1183      C1184   1.407       .  A
C1183     Br1190   1.928       .  S
C1184      C1185   1.417       .  A
C1184     Br1189   1.923       .  S
C1185      C1186   1.417       .  A
C1186     Br1187   1.932       .  S
C1191      C1192   1.409       .  A
C1191      C1196   1.408       .  A
C1191     Br1198   1.925       .  S
C1192      C1193   1.410       .  A
C1193      C1194   1.412       .  A
C1193     Br1200   1.926       .  S
C1194      C1195   1.420       .  A
C1194     Br1199   1.927       .  S
C1195      C1196   1.414       .  A
C1196     Br1197   1.925       .  S
C1201      C1202   1.409       .  A
C1201      C1206   1.399       .  A
C1201     Br1208   1.937       .  S
C1202      C1203   1.404       .  A
C1203      C1204   1.408       .  A
C1203     Br1210   1.930       .  S
C1204      C1205   1.415       .  A
C1204     Br1209   1.918       .  S
C1205      C1206   1.409       .  A
C1206     Br1207   1.923       .  S
C1211      C1212   1.417       .  A
C1211      C1216   1.414       .  A
C1211     Br1218   1.935       .  S
C1212      C1213   1.406       .  A
C1213      C1214   1.406       .  A
C1213     Br1220   1.934       .  S
C1214      C1215   1.420       .  A
C1214     Br1219   1.922       .  S
C1215      C1216   1.418       .  A
C1216     Br1217   1.933       .  S
C1221      C1222   1.425       .  A
C1221      C1226   1.404       .  A
C1221     Br1228   1.941       .  S
C1222      C1223   1.416       .  A
C1223      C1224   1.417       .  A
C1223     Br1230   1.928       .  S
C1224      C1225   1.418       .  A
C1224     Br1229   1.934       .  S
C1225      C1226   1.411       .  A
C1226     Br1227   1.927       .  S
C1231      C1232   1.410       .  A
C1231      C1236   1.403       .  A
C1231     Br1238   1.926       .  S
C1232      C1233   1.419       .  A
C1233      C1234   1.413       .  A
C1233     Br1240   1.922       .  S
C1234      C1235   1.410       .  A
C1234     Br1239   1.928       .  S
C1235      C1236   1.411       .  A
C1236     Br1237   1.923       .  S
C1241      C1242   1.407       .  A
C1241      C1246   1.407   1_455  A
C1241     Br1248   1.928   1_455  S
C1242      C1243   1.410       .  A
C1243      C1244   1.408       .  A
C1243     Br1250   1.931       .  S
C1244      C1245   1.409   1_455  A
C1244     Br1249   1.929       .  S
C1245      C1246   1.411       .  A
C1246     Br1247   1.931       .  S
C1251      C1252   1.414       .  A
C1251      C1256   1.403       .  A
C1251     Br1258   1.927       .  S
C1252      C1253   1.427       .  A
C1253      C1254   1.418       .  A
C1253     Br1260   1.925       .  S
C1254      C1255   1.408       .  A
C1254     Br1259   1.932       .  S
C1255      C1256   1.413       .  A
C1256     Br1257   1.941       .  S
C1261      C1262   1.409       .  A
C1261      C1266   1.407       .  A
C1261     Br1268   1.927       .  S
C1262      C1263   1.411       .  A
C1263      C1264   1.408       .  A
C1263     Br1270   1.930       .  S
C1264      C1265   1.407       .  A
C1264     Br1269   1.929       .  S
C1265      C1266   1.408       .  A
C1266     Br1267   1.932       .  S
C1271      C1272   1.420       .  A
C1271      C1276   1.420       .  A
C1271     Br1278   1.931       .  S
C1272      C1273   1.419       .  A
C1273      C1274   1.409       .  A
C1273     Br1280   1.928       .  S
C1274      C1275   1.415       .  A
C1274     Br1279   1.927       .  S
C1275      C1276   1.418       .  A
C1276     Br1277   1.934       .  S
