geometry optimzed in LAMMPS
_audit_creation_date              2020-11-30 
_audit_creation_method            'lammps2cif' 
_symmetry_space_group_name_H-M    'P1' 
_symmetry_Int_Tables_number       1 
_symmetry_cell_setting            triclinic 
loop_ 
_symmetry_equiv_pos_as_xyz 
  x,y,z 
_cell_length_a                    51.00845722 
_cell_length_b                    51.39164591503683 
_cell_length_c                    32.03216054979204 
_cell_angle_alpha                 89.91556263331721 
_cell_angle_beta                  89.93751083919317 
_cell_angle_gamma                 90.1272397095415 
loop_ 
_atom_site_label 
_atom_site_type_symbol 
_atom_site_fract_x 
_atom_site_fract_y 
_atom_site_fract_z 
_atom_site_charge 
In1        In  0.37600124  0.33845429  0.34868071     1.36900
C2          C  0.38740793  0.35930438  0.42246223     0.77200
O3          O  0.34291884  0.36731885  0.34729751    -0.61200
O4          O  0.33499682  0.32859696  0.32891390    -0.52100
C5          C  0.40598742  0.34925095  0.28236761     0.69900
O6          O  0.41513327  0.34766375  0.31887408    -0.47000
C7          C  0.37536900  0.28735588  0.35842946     0.74600
O8          O  0.37968431  0.37264172  0.39182696    -0.58900
O9          O  0.39141059  0.29873147  0.33458534    -0.49000
O10         O  0.39241826  0.33594904  0.41377694    -0.55300
C11         C  0.32591526  0.35092212  0.33611366     0.84800
O12         O  0.38147878  0.34670367  0.28053402    -0.57200
O13         O  0.36049194  0.30233770  0.37859661    -0.60500
In14       In  0.33851126  0.37111174  0.66560210     1.36900
C15         C  0.36099674  0.37926532  0.59161680     0.77200
O16         O  0.36818851  0.33903374  0.67284289    -0.61200
O17         O  0.32889086  0.33141052  0.69019098    -0.52100
C18         C  0.34793866  0.40416259  0.72792859     0.69900
O19         O  0.34716103  0.41135888  0.69031693    -0.47000
C20         C  0.28693268  0.37082698  0.65520983     0.74600
O21         O  0.37399868  0.37410420  0.62395213    -0.58900
O22         O  0.30167543  0.35288425  0.64226863    -0.49000
O23         O  0.33680878  0.38211893  0.59782740    -0.55300
C24         C  0.35167916  0.32248388  0.68544904     0.84800
O25         O  0.34529794  0.37999872  0.73296455    -0.57200
O26         O  0.29882138  0.38955256  0.67222027    -0.60500
In27       In  0.34001228  0.12848363  0.35534640     1.36900
C28         C  0.36036113  0.11666088  0.42892868     0.77200
O29         O  0.33618667  0.16808369  0.38257096    -0.61200
O30         O  0.36557829  0.16166998  0.33648819    -0.52100
C31         C  0.35393200  0.09809695  0.29191200     0.69900
O32         O  0.34858786  0.08915436  0.32761133    -0.47000
C33         C  0.28857772  0.13184678  0.34302167     0.74600
O34         O  0.37443163  0.12313566  0.39821297    -0.58900
O35         O  0.30487084  0.14773854  0.32806639    -0.49000
O36         O  0.33636655  0.11380354  0.42057412    -0.55300
C37         C  0.35466789  0.17751039  0.36112934     0.84800
O38         O  0.35360556  0.12253327  0.28983588    -0.57200
O39         O  0.29870228  0.11348647  0.36358768    -0.60500
In40       In  0.37106327  0.16049010  0.67145091     1.36900
C41         C  0.38113752  0.13739781  0.59913739     0.77200
O42         O  0.33650473  0.13554152  0.68907496    -0.61200
O43         O  0.33064196  0.16770497  0.64832805    -0.52100
C44         C  0.40362898  0.14940480  0.73385756     0.69900
O45         O  0.41145515  0.15343733  0.69711770    -0.47000
C46         C  0.36968700  0.21186737  0.68203200     0.74600
O47         O  0.37198669  0.12528559  0.63015190    -0.58900
O48         O  0.35525698  0.19616327  0.70171288    -0.49000
O49         O  0.38758824  0.16067357  0.60649050    -0.55300
C50         C  0.32058256  0.14843636  0.66696860     0.84800
O51         O  0.37905656  0.14841206  0.73745681    -0.57200
O52         O  0.38515840  0.20121511  0.65646206    -0.60500
In53       In  0.12608040  0.16022914  0.34921164     1.36900
C54         C  0.11624170  0.13421388  0.41966265     0.77200
O55         O  0.16019270  0.13357681  0.33675052    -0.61200
O56         O  0.16780984  0.17358612  0.34574427    -0.52100
C57         C  0.09522158  0.14957930  0.28411869     0.69900
O58         O  0.08610512  0.15447283  0.31988179    -0.47000
C59         C  0.12554158  0.21199370  0.35654954     0.74600
O60         O  0.10475011  0.15518495  0.41049394    -0.58900
O61         O  0.12195706  0.20035539  0.32240396    -0.49000
O62         O  0.13022589  0.12529726  0.39072347    -0.55300
C63         C  0.17718448  0.15134497  0.33929783     0.84800
O64         O  0.11983770  0.14834289  0.28288838    -0.57200
O65         O  0.12848775  0.19696973  0.38740155    -0.60500
In66       In  0.15670338  0.12957098  0.66447712     1.36900
C67         C  0.13581973  0.11687733  0.59134744     0.77200
O68         O  0.12818895  0.16257870  0.65705901    -0.61200
O69         O  0.16325299  0.16949689  0.69045449    -0.52100
C70         C  0.14603586  0.09936697  0.72979063     0.69900
O71         O  0.14910869  0.09047744  0.69348488    -0.47000
C72         C  0.20874035  0.13098292  0.65714417     0.74600
O73         O  0.12203163  0.12217732  0.62285478    -0.58900
O74         O  0.19373991  0.14764996  0.64104695    -0.49000
O75         O  0.16006141  0.11554597  0.59859929    -0.55300
C76         C  0.14255230  0.17896040  0.67530352     0.84800
O77         O  0.14613689  0.12382905  0.73169051    -0.57200
O78         O  0.19694300  0.11280436  0.67586759    -0.60500
In79       In  0.16158742  0.37204431  0.34699784     1.36900
C80         C  0.13913394  0.38543684  0.41908687     0.77200
O81         O  0.16335223  0.33190314  0.37319362    -0.61200
O82         O  0.13445997  0.33940002  0.32720923    -0.52100
C83         C  0.15388380  0.40372054  0.28116132     0.69900
O84         O  0.15657627  0.41206068  0.31792768    -0.47000
C85         C  0.21354859  0.36675633  0.34045212     0.74600
O86         O  0.12591879  0.37955049  0.38713515    -0.58900
O87         O  0.19733715  0.35214570  0.32238048    -0.49000
O88         O  0.16348874  0.38707796  0.41267700    -0.55300
C89         C  0.14481489  0.32293179  0.35150110     0.84800
O90         O  0.15328258  0.37928084  0.27887895    -0.57200
O91         O  0.20308824  0.38437792  0.36222019    -0.60500
In92       In  0.12505012  0.34187431  0.66050111     1.36900
C93         C  0.11394021  0.36494622  0.58836249     0.77200
O94         O  0.15941964  0.36743538  0.67601114    -0.61200
O95         O  0.16511970  0.33451304  0.63700921    -0.52100
C96         C  0.09495309  0.35217427  0.72636108     0.69900
O97         O  0.08551353  0.34792384  0.69064421    -0.47000
C98         C  0.12797875  0.29049665  0.66937039     0.74600
O99         O  0.12186312  0.37739508  0.61983654    -0.58900
O100        O  0.14170744  0.30628417  0.68994927    -0.49000
O101        O  0.10863139  0.34134872  0.59545407    -0.55300
C102        C  0.17525997  0.35395357  0.65472687     0.84800
O103        O  0.11958162  0.35329401  0.72715753    -0.57200
O104        O  0.11215384  0.30114294  0.64430085    -0.60500
In105      In  0.88233347  0.66370474  0.34621184     1.36900
C106        C  0.89491351  0.64333123  0.41956623     0.77200
O107        O  0.89641950  0.70486035  0.33621195    -0.61200
O108        O  0.85975361  0.69907191  0.36545394    -0.52100
C109        C  0.91392020  0.65317602  0.28225882     0.69900
O110        O  0.92250541  0.66080296  0.31705014    -0.47000
C111        C  0.83395834  0.64650321  0.33312141     0.74600
O112        O  0.89168306  0.62951204  0.38747009    -0.58900
O113        O  0.84446850  0.66401190  0.31100641    -0.49000
O114        O  0.89478168  0.66750896  0.41278420    -0.55300
C115        C  0.87624483  0.71518195  0.35160508     0.84800
O116        O  0.88958466  0.64913438  0.28159940    -0.57200
O117        O  0.84885782  0.63687854  0.36033292    -0.60500
In118      In  0.84511210  0.62848487  0.66038289     1.36900
C119        C  0.87139601  0.62110024  0.58909881     0.77200
O120        O  0.80419470  0.61716398  0.68007259    -0.61200
O121        O  0.80864965  0.64131359  0.62701657    -0.52100
C122        C  0.85401744  0.59642267  0.72417051     0.69900
O123        O  0.85089933  0.58802586  0.68742883    -0.47000
C124        C  0.85617687  0.67759686  0.67959974     0.74600
O125        O  0.88099182  0.63236941  0.62031196    -0.58900
O126        O  0.83337725  0.66956261  0.67209534    -0.49000
O127        O  0.84925778  0.61090728  0.59583069    -0.55300
C128        C  0.79301497  0.63038469  0.65215221     0.84800
O129        O  0.85423925  0.62082580  0.72685546    -0.57200
O130        O  0.87350849  0.66014809  0.67889478    -0.60500
In131      In  0.67064917  0.63551563  0.33841390     1.36900
C132        C  0.64930129  0.62782415  0.41317874     0.77200
O133        O  0.70978599  0.61872410  0.35607600    -0.61200
O134        O  0.70778246  0.64682256  0.30748468    -0.52100
C135        C  0.65651483  0.60503816  0.27509445     0.69900
O136        O  0.66338060  0.59600879  0.31000779    -0.47000
C137        C  0.66118338  0.68622221  0.33620774     0.74600
O138        O  0.63585609  0.63107729  0.38067207    -0.58900
O139        O  0.68332570  0.67694422  0.34488073    -0.49000
O140        O  0.67362820  0.62624866  0.40678065    -0.55300
C141        C  0.72210415  0.63241036  0.32966146     0.84800
O142        O  0.65526667  0.62944310  0.27396642    -0.57200
O143        O  0.64370711  0.66949379  0.32864495    -0.60500
In144      In  0.63211823  0.67028983  0.65495149     1.36900
C145        C  0.62243288  0.64794351  0.58242551     0.77200
O146        O  0.61971501  0.71151137  0.64070328    -0.61200
O147        O  0.65032434  0.70509514  0.68420542    -0.52100
C148        C  0.59875866  0.65956671  0.71659715     0.69900
O149        O  0.59111644  0.66650381  0.68087190    -0.47000
C150        C  0.68225487  0.65601027  0.65254072     0.74600
O151        O  0.62733673  0.63490544  0.61486193    -0.58900
O152        O  0.67265512  0.67369902  0.63000670    -0.49000
O153        O  0.61871746  0.67187827  0.58859159    -0.55300
C154        C  0.63646198  0.72137752  0.66493637     0.84800
O155        O  0.62315901  0.65651959  0.71933138    -0.57200
O156        O  0.66592805  0.64558104  0.67723568    -0.60500
In157      In  0.63533473  0.84824888  0.34406898     1.36900
C158        C  0.63751995  0.86204470  0.42414323     0.77200
O159        O  0.62365176  0.80746935  0.36212127    -0.61200
O160        O  0.65568780  0.81256234  0.32091175    -0.52100
C161        C  0.59602594  0.85810156  0.29118784     0.69900
O162        O  0.59351157  0.84305595  0.32196146    -0.47000
C163        C  0.67928432  0.87144939  0.32061933     0.74600
O164        O  0.61991309  0.87081307  0.40021849    -0.58900
O165        O  0.67160585  0.85010855  0.30537785    -0.49000
O166        O  0.65235684  0.84553461  0.40746068    -0.55300
C167        C  0.64131046  0.79678752  0.34055470     0.84800
O168        O  0.61778868  0.86964254  0.28992305    -0.57200
O169        O  0.66296106  0.88226554  0.34459435    -0.60500
In170      In  0.67150212  0.88091111  0.67712087     1.36900
C171        C  0.65929536  0.88631733  0.59687581     0.77200
O172        O  0.71175890  0.89865753  0.67125410    -0.61200
O173        O  0.70626874  0.86713817  0.71305826    -0.52100
C174        C  0.65462177  0.91313888  0.73567679     0.69900
O175        O  0.66150654  0.92098644  0.69996574    -0.47000
C176        C  0.65874309  0.83102149  0.67852111     0.74600
O177        O  0.64181975  0.88624738  0.62483833    -0.58900
O178        O  0.68106419  0.83945757  0.66849770    -0.49000
O179        O  0.68232240  0.88681745  0.61085638    -0.55300
C180        C  0.72212068  0.88310667  0.69694850     0.84800
O181        O  0.65431751  0.88879193  0.73975616    -0.57200
O182        O  0.64240165  0.84842966  0.68836569    -0.60500
In183      In  0.84055812  0.87555792  0.34630073     1.36900
C184        C  0.85236884  0.88072009  0.42671031     0.77200
O185        O  0.80153429  0.89493208  0.35537302    -0.61200
O186        O  0.80493505  0.86564537  0.30924353    -0.52100
C187        C  0.85757538  0.90611865  0.28499157     0.69900
O188        O  0.85214531  0.91487709  0.32079321    -0.47000
C189        C  0.85259939  0.82529470  0.34722035     0.74600
O190        O  0.86961444  0.88340597  0.39864224    -0.58900
O191        O  0.82959680  0.83379774  0.35073206    -0.49000
O192        O  0.82933453  0.87868018  0.41297008    -0.55300
C193        C  0.79020681  0.88170199  0.32744108     0.84800
O194        O  0.85723683  0.88167904  0.28268548    -0.57200
O195        O  0.86969353  0.84272082  0.34112111    -0.60500
In196      In  0.87705404  0.83996863  0.67895500     1.36900
C197        C  0.87438943  0.85317267  0.59848520     0.77200
O198        O  0.89328492  0.79991295  0.66540670    -0.61200
O199        O  0.85806523  0.80320417  0.69993321    -0.52100
C200        C  0.91279123  0.85172917  0.73717013     0.69900
O201        O  0.91927384  0.84226790  0.70232643    -0.47000
C202        C  0.83205710  0.86254799  0.69885884     0.74600
O203        O  0.88976743  0.86474877  0.62327106    -0.58900
O204        O  0.83788131  0.83961632  0.70942669    -0.49000
O205        O  0.86281575  0.83388456  0.61424403    -0.55300
C206        C  0.87483469  0.78825438  0.68402492     0.84800
O207        O  0.88882085  0.85685782  0.73994587    -0.57200
O208        O  0.85022368  0.87473659  0.68037887    -0.60500
In209      In  0.85684471  0.50660796  0.94588126     1.36900
C210        C  0.89302117  0.53941718  0.97582647     0.77200
O211        O  0.87608221  0.47442448  0.98353834    -0.61200
O212        O  0.87181547  0.46916825  0.91857657    -0.52100
C213        C  0.80743368  0.50280129  0.97606831     0.69900
O214        O  0.82636808  0.51168229  0.99688343    -0.47000
C215        C  0.85313630  0.53207302  0.87313512     0.74600
O216        O  0.86942523  0.53945505  0.98768667    -0.58900
O217        O  0.85559947  0.50770513  0.87504980    -0.49000
O218        O  0.89843394  0.52148389  0.95040996    -0.55300
C219        C  0.88093800  0.46031202  0.95223505     0.84800
O220        O  0.81407745  0.49475129  0.94046610    -0.57200
O221        O  0.85125448  0.54284214  0.90823871    -0.60500
In222      In  0.00335806  0.65056004  0.06061564     1.36900
C223        C  0.97070169  0.61576996  0.02617029     0.77200
O224        O  0.03647792  0.63161663  0.02574723    -0.61200
O225        O  0.04055131  0.63633050  0.09102601    -0.52100
C226        C  0.01164648  0.69960760  0.03319802     0.69900
O227        O  0.00446285  0.68120103  0.00983174    -0.47000
C228        C  0.97590943  0.65228691  0.13116869     0.74600
O229        O  0.96886170  0.63990372  0.01949345    -0.58900
O230        O  0.99929845  0.64446159  0.12983903    -0.49000
O231        O  0.98988207  0.60946274  0.04866212    -0.55300
C232        C  0.05008765  0.62706784  0.05785293     0.84800
O233        O  0.01526105  0.69270057  0.07052200    -0.57200
O234        O  0.96724214  0.66056746  0.09686104    -0.60500
In235      In  0.85917836  0.99751888  0.06567529     1.36900
C236        C  0.89625226  0.96663055  0.03306479     0.77200
O237        O  0.87565089  0.03156968  0.03003840    -0.61200
O238        O  0.87376601  0.03451465  0.09586000    -0.52100
C239        C  0.80957656  0.00269658  0.03710651     0.69900
O240        O  0.82882279  0.99750111  0.01387526    -0.47000
C241        C  0.85838141  0.97116424  0.13736865     0.74600
O242        O  0.87204299  0.96203073  0.02925312    -0.58900
O243        O  0.85441074  0.96080177  0.10234708    -0.49000
O244        O  0.90122306  0.98772319  0.05134382    -0.55300
C245        C  0.88109443  0.04488340  0.06201047     0.84800
O246        O  0.81591864  0.00572427  0.07478450    -0.57200
O247        O  0.86155051  0.99550359  0.13589695    -0.60500
In248      In  0.00878439  0.85686657  0.95166523     1.36900
C249        C  0.97596881  0.89182004  0.98477250     0.77200
O250        O  0.04441148  0.87201059  0.98551849    -0.61200
O251        O  0.04313486  0.87545203  0.91971411    -0.52100
C252        C  0.01527297  0.80793195  0.97962663     0.69900
O253        O  0.01855908  0.81453074  0.94208812    -0.47000
C254        C  0.98147304  0.85304245  0.88111695     0.74600
O255        O  0.97502307  0.86787964  0.99344583    -0.58900
O256        O  0.00608234  0.85560223  0.88116987    -0.49000
O257        O  0.99505684  0.89813156  0.96187262    -0.55300
C258        C  0.05548011  0.88035962  0.95284883     0.84800
O259        O  0.00965536  0.82665791  0.00338681    -0.57200
O260        O  0.97146799  0.85099248  0.91692719    -0.60500
In261      In  0.50482707  0.65705198  0.93334958     1.36900
C262        C  0.53868401  0.62298084  0.96625516     0.77200
O263        O  0.47260788  0.63549459  0.96687920    -0.61200
O264        O  0.46813469  0.64189992  0.90206158    -0.52100
C265        C  0.49786332  0.70482420  0.96679197     0.69900
O266        O  0.50269807  0.68480945  0.98815336    -0.47000
C267        C  0.53112389  0.65960167  0.86147730     0.74600
O268        O  0.54197874  0.64725986  0.96881875    -0.58900
O269        O  0.50676000  0.65532990  0.86250880    -0.49000
O270        O  0.51775737  0.61643504  0.94827251    -0.55300
C271        C  0.45901336  0.63135099  0.93462279     0.84800
O272        O  0.49505565  0.70006507  0.92849712    -0.57200
O273        O  0.54122610  0.66395491  0.89657295    -0.60500
In274      In  0.64810987  0.51347695  0.05691935     1.36900
C275        C  0.61520410  0.54668071  0.01973546     0.77200
O276        O  0.62952675  0.47863909  0.02537098    -0.61200
O277        O  0.62933401  0.47988278  0.09123621    -0.52100
C278        C  0.69792786  0.50646815  0.03003313     0.69900
O279        O  0.67846341  0.50736733  0.00589640    -0.47000
C280        C  0.64978159  0.54026123  0.12792917     0.74600
O281        O  0.60772285  0.52739385  0.04095700    -0.58900
O282        O  0.65065946  0.55071946  0.09237676    -0.49000
O283        O  0.63974501  0.54809862  0.01527672    -0.55300
C284        C  0.62201009  0.46799249  0.05888709     0.84800
O285        O  0.69167251  0.50804498  0.06796289    -0.57200
O286        O  0.64889508  0.51572572  0.12709463    -0.60500
In287      In  0.50663388  0.85756866  0.07105631     1.36900
C288        C  0.53899188  0.89387638  0.03949973     0.77200
O289        O  0.47254234  0.87527824  0.03661572    -0.61200
O290        O  0.46991908  0.87214826  0.10226527    -0.52100
C291        C  0.50206619  0.80901571  0.03906318     0.69900
O292        O  0.50294637  0.82922709  0.01679081    -0.47000
C293        C  0.53119996  0.85690771  0.14421425     0.74600
O294        O  0.54214879  0.86978698  0.03334451    -0.58900
O295        O  0.50662313  0.85424900  0.14167278    -0.49000
O296        O  0.51858717  0.89924415  0.05991448    -0.55300
C297        C  0.45947901  0.88028011  0.06907717     0.84800
O298        O  0.50330092  0.81368966  0.07756835    -0.57200
O299        O  0.54289730  0.85787652  0.10963197    -0.60500
In300      In  0.65063985  0.00351803  0.95383386     1.36900
C301        C  0.61624660  0.97088759  0.98897361     0.77200
O302        O  0.63165634  0.03797700  0.98541759    -0.61200
O303        O  0.63457504  0.03818403  0.91958409    -0.52100
C304        C  0.70032328  0.00774642  0.98261512     0.69900
O305        O  0.68069501  0.00553722  0.00628774    -0.47000
C306        C  0.65044936  0.97792342  0.88167734     0.74600
O307        O  0.64069316  0.96715679  0.98964624    -0.58900
O308        O  0.65273903  0.00233315  0.88354282    -0.49000
O309        O  0.60956782  0.99228929  0.97296045    -0.55300
C310        C  0.62577155  0.04931328  0.95167189     0.84800
O311        O  0.69429414  0.00907464  0.94461189    -0.57200
O312        O  0.64923044  0.96684940  0.91662784    -0.60500
In313      In  0.49852274  0.35995389  0.06382675     1.36900
C314        C  0.46806521  0.39699434  0.03161547     0.77200
O315        O  0.46075968  0.35370174  0.09810775    -0.61200
O316        O  0.49552106  0.35784712  0.13374745    -0.52100
C317        C  0.50285982  0.31050020  0.03627166     0.69900
O318        O  0.49624912  0.32919069  0.01304112    -0.47000
C319        C  0.54467458  0.38496784  0.06037779     0.74600
O320        O  0.47043305  0.37486949  0.01487949    -0.58900
O321        O  0.53435190  0.37741374  0.09402055    -0.49000
O322        O  0.48167796  0.40006195  0.06397167    -0.55300
C323        C  0.47093311  0.35498783  0.13394236     0.84800
O324        O  0.50817157  0.31734694  0.07305021    -0.57200
O325        O  0.53266146  0.37732893  0.02828201    -0.60500
In326      In  0.35729002  0.50338375  0.93745701     1.36900
C327        C  0.39535131  0.47357832  0.96821827     0.77200
O328        O  0.34523224  0.46627254  0.90685803    -0.61200
O329        O  0.35817584  0.49704589  0.86784125    -0.52100
C330        C  0.30828503  0.50708762  0.96798359     0.69900
O331        O  0.32655511  0.49515656  0.98620072    -0.47000
C332        C  0.38023541  0.55036906  0.93903933     0.74600
O333        O  0.37678597  0.48193634  0.99055528    -0.58900
O334        O  0.37096148  0.54041293  0.90626151    -0.49000
O335        O  0.39514376  0.48169913  0.93115095    -0.55300
C336        C  0.35075857  0.47361417  0.87032028     0.84800
O337        O  0.31525484  0.51767621  0.93418396    -0.57200
O338        O  0.37614661  0.53696934  0.97136793    -0.60500
In339      In  0.49940911  0.15372930  0.94871937     1.36900
C340        C  0.46857446  0.11773849  0.98428450     0.77200
O341        O  0.46099431  0.15799213  0.91625083    -0.61200
O342        O  0.49476876  0.15312783  0.87862435    -0.52100
C343        C  0.50550164  0.20319994  0.97615346     0.69900
O344        O  0.50149341  0.18410954  0.00012756    -0.47000
C345        C  0.54565969  0.12911906  0.94959374     0.74600
O346        O  0.46670607  0.14169590  0.99260513    -0.58900
O347        O  0.53501359  0.13701261  0.91636154    -0.49000
O348        O  0.48683289  0.11236034  0.95930839    -0.55300
C349        C  0.47009022  0.15496284  0.88004904     0.84800
O350        O  0.50774295  0.19672488  0.93839471    -0.57200
O351        O  0.53363158  0.13582140  0.98228397    -0.60500
In352      In  0.35847157  0.00712601  0.07311478     1.36900
C353        C  0.39320132  0.04021005  0.03934462     0.77200
O354        O  0.35387950  0.04348851  0.11011699    -0.61200
O355        O  0.36036874  0.00860499  0.14366635    -0.52100
C356        C  0.30923633  0.00057889  0.04408328     0.69900
O357        O  0.32873168  0.00502495  0.02094237    -0.47000
C358        C  0.38131966  0.96056052  0.06931262     0.74600
O359        O  0.36873633  0.04326268  0.03664902    -0.58900
O360        O  0.37546902  0.97143221  0.10338325    -0.49000
O361        O  0.39990061  0.01921402  0.05663858    -0.55300
C362        C  0.35762984  0.03300088  0.14512863     0.84800
O363        O  0.31511520  0.99869910  0.08215935    -0.57200
O364        O  0.37424578  0.97308293  0.03734915    -0.60500
In365      In  0.00600520  0.14922488  0.06121205     1.36900
C366        C  0.03770375  0.11351719  0.02755062     0.77200
O367        O  0.04341238  0.15296765  0.09675425    -0.61200
O368        O  0.00878118  0.14675369  0.13168498    -0.52100
C369        C  0.00161880  0.19849532  0.03224829     0.69900
O370        O  0.00325437  0.17902289  0.00849326    -0.47000
C371        C  0.95859688  0.12676227  0.06086407     0.74600
O372        O  0.04155185  0.13768633  0.02403474    -0.58900
O373        O  0.96921985  0.13538165  0.09365386    -0.49000
O374        O  0.01659149  0.10772990  0.04575174    -0.55300
C375        C  0.03341008  0.14946003  0.13222977     0.84800
O376        O  0.00118479  0.19253243  0.07038242    -0.57200
O377        O  0.97141256  0.13159317  0.02796164    -0.60500
In378      In  0.15400468  0.00764131  0.94701303     1.36900
C379        C  0.11718880  0.03874967  0.97919548     0.77200
O380        O  0.16148668  0.04354995  0.90972618    -0.61200
O381        O  0.14779352  0.01011141  0.87763051    -0.52100
C382        C  0.20313715  0.00221326  0.97644783     0.69900
O383        O  0.18358068  0.00647309  0.99955062    -0.47000
C384        C  0.13410160  0.95991731  0.94926647     0.74600
O385        O  0.14135805  0.04183620  0.98597271    -0.58900
O386        O  0.14288335  0.97011781  0.91623839    -0.49000
O387        O  0.11175575  0.01859637  0.95860898    -0.55300
C388        C  0.15371853  0.03392111  0.87575270     0.84800
O389        O  0.19739059  0.00040153  0.93830804    -0.57200
O390        O  0.13721066  0.97362651  0.98158672    -0.60500
In391      In  0.15308878  0.50029615  0.06547900     1.36900
C392        C  0.11615305  0.46926233  0.03450200     0.77200
O393        O  0.15994743  0.46226000  0.09883172    -0.61200
O394        O  0.15282207  0.49579665  0.13542533    -0.52100
C395        C  0.20221731  0.50557676  0.03538160     0.69900
O396        O  0.18248084  0.50275505  0.01221553    -0.47000
C397        C  0.12934421  0.54692478  0.06234429     0.74600
O398        O  0.13826361  0.47199880  0.01710479    -0.58900
O399        O  0.14023862  0.53835911  0.09490528    -0.49000
O400        O  0.11290484  0.48315119  0.06642148    -0.55300
C401        C  0.15649221  0.47147654  0.13495310     0.84800
O402        O  0.19672149  0.50648238  0.07368650    -0.57200
O403        O  0.13224178  0.53239096  0.03109475    -0.60500
In404      In  0.00775355  0.35636727  0.94970170     1.36900
C405        C  0.04080276  0.39284113  0.97756617     0.77200
O406        O  0.04377053  0.34548446  0.91422623    -0.61200
O407        O  0.01026951  0.35740201  0.87988471    -0.52100
C408        C  0.00305586  0.30694863  0.97773754     0.69900
O409        O  0.01433262  0.32475158  0.99797545    -0.47000
C410        C  0.96176012  0.38162783  0.95503419     0.74600
O411        O  0.03187296  0.37509354  0.00102623    -0.58900
O412        O  0.96983311  0.37107150  0.92198373    -0.49000
O413        O  0.03218190  0.39220628  0.94083995    -0.55300
C414        C  0.03415591  0.35093044  0.87898177     0.84800
O415        O  0.99361785  0.31458172  0.94354508    -0.57200
O416        O  0.97656473  0.37791210  0.98588616    -0.60500
C417        C  0.05939147  0.42122442  0.03298304    -0.26700
C418        C  0.05992138  0.41272903  0.99147163    -0.14800
C419        C  0.07853490  0.42357068  0.96357036     0.35900
C420        C  0.09655067  0.44219974  0.97815962    -0.26100
C421        C  0.09602694  0.45064358  0.01973370    -0.15400
C422        C  0.07690582  0.44035346  0.04713311     0.37000
N423        N  0.07543028  0.44890979  0.08960956    -0.89600
H424        H  0.04503331  0.41325768  0.05447336     0.18100
H425        H  0.11109244  0.45014509  0.95696456     0.18100
N426        N  0.07942673  0.41528228  0.92075999    -0.88700
H427        H  0.07792720  0.43272851  0.10901929     0.35400
H428        H  0.05664463  0.45634695  0.09476586     0.40500
H429        H  0.08472333  0.39570353  0.92071232     0.40200
H430        H  0.09411780  0.42527009  0.90438531     0.35000
C431        C  0.00433784  0.24619406  0.04676348    -0.26700
C432        C  0.00099081  0.22611130  0.01744582    -0.14800
C433        C  0.99773288  0.23291542  0.97501740     0.35900
C434        C  0.99780796  0.25931606  0.96293614    -0.26100
C435        C  0.00156468  0.27934696  0.99225042    -0.15400
C436        C  0.00465290  0.27259521  0.03475788     0.37000
N437        N  0.00791656  0.29253494  0.06575977    -0.89600
H438        H  0.00692101  0.24129453  0.07940078     0.18100
H439        H  0.99546804  0.26411095  0.93019519     0.18100
N440        N  0.99439460  0.21317087  0.94396310    -0.88700
H441        H  0.01037717  0.28432786  0.09539421     0.35400
H442        H  0.99051625  0.30321801  0.06686749     0.40500
H443        H  0.00940925  0.21523534  0.92194210     0.40200
H444        H  0.97655145  0.21644311  0.92883058     0.35000
C445        C  0.08302281  0.10222718  0.00605575    -0.26700
C446        C  0.05725152  0.09388425  0.01387883    -0.14800
C447        C  0.05127495  0.06704100  0.01095960     0.35900
C448        C  0.07116309  0.04934589  0.99977786    -0.26100
C449        C  0.09696982  0.05778292  0.99233392    -0.15400
C450        C  0.10288443  0.08456892  0.99530231     0.37000
N451        N  0.12891994  0.09389046  0.98653862    -0.89600
H452        H  0.08782500  0.12270656  0.00866638     0.18100
H453        H  0.06654865  0.02882049  0.99716251     0.18100
N454        N  0.02519527  0.05777076  0.01951194    -0.88700
H455        H  0.13010639  0.11401290  0.99091450     0.35400
H456        H  0.13263828  0.09056489  0.95487992     0.40500
H457        H  0.02430553  0.03750782  0.01701645     0.40200
H458        H  0.01284691  0.06522729  0.99638707     0.35000
C459        C  0.23427644  0.99832838  0.03637760    -0.26700
C460        C  0.23042840  0.99993642  0.99298964    -0.14800
C461        C  0.25268378  0.00010296  0.96655333     0.35900
C462        C  0.27798950  0.99914249  0.98411841    -0.26100
C463        C  0.28187731  0.99869972  0.02757223    -0.15400
C464        C  0.25960707  0.99793942  0.05399223     0.37000
N465        N  0.26259867  0.99734471  0.09860672    -0.89600
H466        H  0.21737235  0.99799894  0.05687865     0.18100
H467        H  0.29486927  0.99957609  0.96357348     0.18100
N468        N  0.24970172  0.00194758  0.92201724    -0.88700
H469        H  0.24435681  0.99567864  0.11329460     0.35400
H470        H  0.27028492  0.01534054  0.10770911     0.40500
H471        H  0.26792141  0.00094851  0.90712731     0.40200
H472        H  0.24219709  0.02041500  0.91537915     0.35000
C473        C  0.42513549  0.10538472  0.01421031    -0.26700
C474        C  0.45010142  0.09774987  0.00049370    -0.14800
C475        C  0.45644893  0.07100400  0.00042602     0.35900
C476        C  0.43764432  0.05248901  0.01288333    -0.26100
C477        C  0.41241845  0.06011110  0.02533568    -0.15400
C478        C  0.40637062  0.08688072  0.02671107     0.37000
N479        N  0.38146467  0.09544579  0.04207812    -0.89600
H480        H  0.41997719  0.12582614  0.01479193     0.18100
H481        H  0.44278982  0.03204003  0.01262486     0.18100
N482        N  0.48210913  0.06254253  0.98843001    -0.88700
H483        H  0.37250513  0.10656127  0.01877589     0.35400
H484        H  0.38476676  0.10749263  0.06782953     0.40500
H485        H  0.48015344  0.04964395  0.96340805     0.40200
H486        H  0.49026579  0.05235498  0.01351026     0.35000
C487        C  0.27618040  0.49729645  0.02475739    -0.26700
C488        C  0.28107646  0.50805561  0.98511768    -0.14800
C489        C  0.25986868  0.51883545  0.96266946     0.35900
C490        C  0.23435777  0.51792593  0.97955531    -0.26100
C491        C  0.22952208  0.50697457  0.01905228    -0.15400
C492        C  0.25078146  0.49674041  0.04201193     0.37000
N493        N  0.24647877  0.48523603  0.08239807    -0.89600
H494        H  0.29224601  0.48901067  0.04238138     0.18100
H495        H  0.21825167  0.52599804  0.96173956     0.18100
N496        N  0.26400734  0.53061068  0.92264698    -0.88700
H497        H  0.26415501  0.47893949  0.09536958     0.35400
H498        H  0.23493085  0.46860234  0.07814740     0.40500
H499        H  0.25767445  0.54991963  0.92425582     0.40200
H500        H  0.25228696  0.52089902  0.90088121     0.35000
C501        C  0.50473822  0.23596403  0.03416299    -0.26700
C502        C  0.50634872  0.23081001  0.99111383    -0.14800
C503        C  0.50718190  0.25215866  0.96322557     0.35900
C504        C  0.50574695  0.27779401  0.97856862    -0.26100
C505        C  0.50411713  0.28293539  0.02156235    -0.15400
C506        C  0.50357739  0.26164464  0.04967813     0.37000
N507        N  0.50135372  0.26605614  0.09385630    -0.89600
H508        H  0.50397098  0.21983231  0.05593988     0.18100
H509        H  0.50620359  0.29382056  0.95655134     0.18100
N510        N  0.50938328  0.24803120  0.91916252    -0.88700
H511        H  0.50180355  0.24841741  0.11023186     0.35400
H512        H  0.48293499  0.27419259  0.09941736     0.40500
H513        H  0.52627035  0.25759324  0.90867180     0.40200
H514        H  0.49320900  0.25664317  0.90469221     0.35000
C515        C  0.44205296  0.41633754  0.97362737    -0.26700
C516        C  0.45043026  0.41747609  0.01528536    -0.14800
C517        C  0.44120612  0.43779725  0.04108669     0.35900
C518        C  0.42347326  0.45613266  0.02512383    -0.26100
C519        C  0.41509235  0.45490197  0.98355217    -0.15400
C520        C  0.42465077  0.43492539  0.95752739     0.37000
N521        N  0.41593257  0.43283378  0.91515449    -0.89600
H522        H  0.44891599  0.40087163  0.95344365     0.18100
H523        H  0.41618181  0.47136782  0.04538395     0.18100
N524        N  0.44918292  0.43952932  0.08385881    -0.88700
H525        H  0.40694970  0.41467794  0.91140897     0.35400
H526        H  0.43240511  0.43348549  0.89573038     0.40500
H527        H  0.43240155  0.43861774  0.10257857     0.40200
H528        H  0.45800081  0.45769345  0.08837920     0.35000
C529        C  0.60025709  0.08425865  0.98727755    -0.26700
C530        C  0.60832630  0.07251209  0.94987837    -0.14800
C531        C  0.59735166  0.08139745  0.91192193     0.35900
C532        C  0.57802681  0.10090502  0.91232095    -0.26100
C533        C  0.56904189  0.11173961  0.94998606    -0.15400
C534        C  0.58081200  0.10359830  0.98769292     0.37000
N535        N  0.57268048  0.11440831  0.02677695    -0.89600
H536        H  0.60843023  0.07780253  0.01672253     0.18100
H537        H  0.56922485  0.10674708  0.88300163     0.18100
N538        N  0.60487578  0.06996891  0.87294831    -0.88700
H539        H  0.58910098  0.12264130  0.04115553     0.35400
H540        H  0.56588574  0.09921949  0.04569908     0.40500
H541        H  0.61195984  0.08476523  0.85351682     0.40200
H542        H  0.58813224  0.06204875  0.85904097     0.35000
C543        C  0.42747309  0.90789534  0.03056764    -0.26700
C544        C  0.43525582  0.89634563  0.06834229    -0.14800
C545        C  0.42178359  0.90309530  0.10530583     0.35900
C546        C  0.40280732  0.92287216  0.10445825    -0.26100
C547        C  0.39691435  0.93619351  0.06731279    -0.15400
C548        C  0.40857489  0.92771805  0.02972765     0.37000
N549        N  0.40242356  0.94007009  0.99085003    -0.89600
H550        H  0.43719681  0.90267039  0.00168886     0.18100
H551        H  0.39359932  0.92865430  0.13349435     0.18100
N552        N  0.42794721  0.89069032  0.14412832    -0.88700
H553        H  0.39551309  0.92582852  0.97031984     0.35400
H554        H  0.41972745  0.94781501  0.97842057     0.40500
H555        H  0.41079920  0.88220483  0.15581312     0.40200
H556        H  0.43401231  0.90502344  0.16518367     0.35000
C557        C  0.57166283  0.95909714  0.01496535    -0.26700
C558        C  0.59691340  0.95119799  0.00316589    -0.14800
C559        C  0.60273840  0.92438175  0.00218624     0.35900
C560        C  0.58351161  0.90608819  0.01359652    -0.26100
C561        C  0.55830048  0.91393455  0.02591179    -0.15400
C562        C  0.55244430  0.94081023  0.02659265     0.37000
N563        N  0.52693892  0.94970504  0.03857194    -0.89600
H564        H  0.56677682  0.97961160  0.01524932     0.18100
H565        H  0.58844366  0.88559614  0.01290759     0.18100
N566        N  0.62788074  0.91553121  0.98826279    -0.88700
H567        H  0.51912170  0.96037207  0.01372120     0.35400
H568        H  0.52909714  0.96227097  0.06398264     0.40500
H569        H  0.62504023  0.90344115  0.96242662     0.40200
H570        H  0.63622384  0.90441197  0.01213800     0.35000
C571        C  0.59584239  0.43379853  0.02209942    -0.26700
C572        C  0.60485854  0.44441258  0.05989123    -0.14800
C573        C  0.59561650  0.43353562  0.09773898     0.35900
C574        C  0.57738460  0.41296682  0.09702364    -0.26100
C575        C  0.56744546  0.40319835  0.05923050    -0.15400
C576        C  0.57719393  0.41358538  0.02141168     0.37000
N577        N  0.56760517  0.40437685  0.98210188    -0.89600
H578        H  0.60254234  0.44186266  0.99268456     0.18100
H579        H  0.57007887  0.40545096  0.12645733     0.18100
N580        N  0.60391173  0.44381378  0.13712376    -0.88700
H581        H  0.58357966  0.39771820  0.96468943     0.35400
H582        H  0.55932482  0.42011258  0.96617254     0.40500
H583        H  0.61240806  0.42870985  0.15428580     0.40200
H584        H  0.58728899  0.45014399  0.15328655     0.35000
C585        C  0.42629141  0.60456527  0.97362831    -0.26700
C586        C  0.43539278  0.61413474  0.93509951    -0.14800
C587        C  0.42337343  0.60504059  0.89800740     0.35900
C588        C  0.40410477  0.58537064  0.90035121    -0.26100
C589        C  0.39644902  0.57452212  0.93879403    -0.15400
C590        C  0.40695173  0.58510252  0.97582095     0.37000
N591        N  0.39859280  0.57574557  0.01582982    -0.89600
H592        H  0.43486271  0.61158554  0.00243840     0.18100
H593        H  0.39589617  0.57766217  0.87173087     0.18100
N594        N  0.43154864  0.61479828  0.85796873    -0.88700
H595        H  0.39126327  0.59152526  0.03275806     0.35400
H596        H  0.41500488  0.56859603  0.03160900     0.40500
H597        H  0.42597148  0.63431154  0.85633069     0.40200
H598        H  0.42156300  0.60524823  0.83388875     0.35000
C599        C  0.50621824  0.73518445  0.02619895    -0.26700
C600        C  0.49704459  0.73157846  0.98520178    -0.14800
C601        C  0.48879904  0.75372507  0.96230590     0.35900
C602        C  0.49018169  0.77864897  0.98078894    -0.26100
C603        C  0.49991431  0.78219185  0.02143166    -0.15400
C604        C  0.50799022  0.76008818  0.04418117     0.37000
N605        N  0.51902583  0.76285180  0.08503560    -0.89600
H606        H  0.51291171  0.71860915  0.04418270     0.18100
H607        H  0.48386900  0.79548723  0.96309878     0.18100
N608        N  0.47902111  0.75101181  0.92046436    -0.88700
H609        H  0.53800153  0.75520355  0.08446488     0.35400
H610        H  0.50783864  0.75169288  0.10579327     0.40500
H611        H  0.49489100  0.74612984  0.90138877     0.40200
H612        H  0.47207198  0.76884189  0.90929259     0.35000
C613        C  0.58465958  0.61077461  0.98442355    -0.26700
C614        C  0.55810839  0.60368228  0.98131047    -0.14800
C615        C  0.55066524  0.57776995  0.99008821     0.35900
C616        C  0.56987555  0.55949738  0.00110798    -0.26100
C617        C  0.59646172  0.56638460  0.00375817    -0.15400
C618        C  0.60399169  0.59235328  0.99505751     0.37000
N619        N  0.63101927  0.60013817  0.99794565    -0.89600
H620        H  0.59044254  0.63062423  0.97752432     0.18100
H621        H  0.56394937  0.53971200  0.00815568     0.18100
N622        N  0.52355435  0.57011782  0.98837290    -0.88700
H623        H  0.63296383  0.62014667  0.99278243     0.35400
H624        H  0.64112156  0.59100974  0.97364506     0.40500
H625        H  0.51365775  0.58017894  0.01194843     0.40200
H626        H  0.52143871  0.55031191  0.99508540     0.35000
C627        C  0.09083719  0.90396315  0.91463655    -0.26700
C628        C  0.07983860  0.89624318  0.95297746    -0.14800
C629        C  0.09049949  0.90635564  0.99022489     0.35900
C630        C  0.11004835  0.92556521  0.98832904    -0.26100
C631        C  0.11911305  0.93517166  0.94987284    -0.15400
C632        C  0.11034477  0.92323603  0.91273941     0.37000
N633        N  0.12012831  0.93145310  0.87288850    -0.89600
H634        H  0.08333887  0.89600957  0.88568708     0.18100
H635        H  0.11696073  0.93410550  0.01721621     0.18100
N636        N  0.08062870  0.89830126  0.03007186    -0.88700
H637        H  0.10430625  0.93804510  0.85506520     0.35400
H638        H  0.12812097  0.91524555  0.85789262     0.40500
H639        H  0.07346187  0.91474204  0.04552683     0.40200
H640        H  0.09628009  0.89092440  0.04742786     0.35000
C641        C  0.90321681  0.08232672  0.09773025    -0.26700
C642        C  0.89662632  0.06951724  0.06038148    -0.14800
C643        C  0.90746289  0.07887049  0.02261903     0.35900
C644        C  0.92618625  0.09896976  0.02326286    -0.26100
C645        C  0.93455103  0.11017397  0.06096231    -0.15400
C646        C  0.92192572  0.10253121  0.09833293     0.37000
N647        N  0.92864448  0.11451107  0.13723278    -0.89600
H648        H  0.89473441  0.07587917  0.12701085     0.18100
H649        H  0.93520725  0.10484388  0.99408497     0.18100
N650        N  0.90040205  0.06735516  0.98352058    -0.88700
H651        H  0.93535686  0.10002493  0.15750654     0.35400
H652        H  0.91158690  0.12245789  0.15002828     0.40500
H653        H  0.91742483  0.06008962  0.96958605     0.40200
H654        H  0.89291010  0.08198711  0.96425506     0.35000
C655        C  0.74839985  0.00618449  0.96762626    -0.26700
C656        C  0.72815195  0.00777396  0.99735423    -0.14800
C657        C  0.73493945  0.00815139  0.04016684     0.35900
C658        C  0.76155273  0.00658572  0.05199698    -0.26100
C659        C  0.78180647  0.00470600  0.02223211    -0.15400
C660        C  0.77484415  0.00460190  0.97937453     0.37000
N661        N  0.79403646  0.00301298  0.94682211    -0.89600
H662        H  0.74367261  0.00578152  0.93465791     0.18100
H663        H  0.76646373  0.00670943  0.08488987     0.18100
N664        N  0.71490051  0.00997683  0.07160749    -0.88700
H665        H  0.80419683  0.98547610  0.94982208     0.35400
H666        H  0.80710026  0.01859205  0.94989432     0.40500
H667        H  0.70625599  0.02831828  0.06877383     0.40200
H668        H  0.72310411  0.00920649  0.10148846     0.35000
C669        C  0.96191151  0.93732039  0.00007650    -0.26700
C670        C  0.95563595  0.91073578  0.99810979    -0.14800
C671        C  0.92953478  0.90280641  0.00600767     0.35900
C672        C  0.91057291  0.92151918  0.01674753    -0.26100
C673        C  0.91693771  0.94807393  0.01952794    -0.15400
C674        C  0.94304697  0.95594544  0.01090109     0.37000
N675        N  0.95095158  0.98270321  0.01186503    -0.89600
H676        H  0.98172513  0.94372310  0.99328941     0.18100
H677        H  0.89068101  0.91526241  0.02324223     0.18100
N678        N  0.92215151  0.87589697  0.00209435    -0.88700
H679        H  0.94895940  0.98970349  0.04231894     0.35400
H680        H  0.93875510  0.99332187  0.99197490     0.40500
H681        H  0.92416028  0.87079640  0.97063589     0.40200
H682        H  0.90237412  0.87328682  0.00955699     0.35000
C683        C  0.10188005  0.57854861  0.02263667    -0.26700
C684        C  0.11291607  0.57088878  0.06091732    -0.14800
C685        C  0.10573600  0.58459445  0.09734875     0.35900
C686        C  0.08646619  0.60414774  0.09527946    -0.26100
C687        C  0.07398840  0.61038628  0.05740823    -0.15400
C688        C  0.08266499  0.59806134  0.02054583     0.37000
N689        N  0.07140805  0.60456273  0.98094971    -0.89600
H690        H  0.10737321  0.56860822  0.99414030     0.18100
H691        H  0.08039200  0.61358801  0.12391605     0.18100
N692        N  0.11709190  0.57806480  0.13685551    -0.88700
H693        H  0.06309207  0.58770585  0.96832792     0.35400
H694        H  0.08651375  0.61066980  0.96112596     0.40500
H695        H  0.10197498  0.57258196  0.15712447     0.40200
H696        H  0.12598644  0.59478590  0.14892505     0.35000
C697        C  0.01875414  0.74703912  0.04808230    -0.26700
C698        C  0.01478929  0.72711398  0.01859293    -0.14800
C699        C  0.01291746  0.73399806  0.97587531     0.35900
C700        C  0.01369713  0.76042139  0.96408583    -0.26100
C701        C  0.01666129  0.78032018  0.99373158    -0.15400
C702        C  0.01981791  0.77340556  0.03604539     0.37000
N703        N  0.02439094  0.79303007  0.06690757    -0.89600
H704        H  0.02067513  0.74221646  0.08087512     0.18100
H705        H  0.01151848  0.76551260  0.93143983     0.18100
N706        N  0.01007442  0.71423810  0.94448307    -0.88700
H707        H  0.04227501  0.78901119  0.08145394     0.35400
H708        H  0.00959583  0.79165257  0.08941796     0.40500
H709        H  0.02742561  0.70344821  0.94408744     0.40200
H710        H  0.00828667  0.72259390  0.91483809     0.35000
C711        C  0.90989031  0.42979817  0.99206429    -0.26700
C712        C  0.89777206  0.43661640  0.95420693    -0.14800
C713        C  0.90433293  0.42240405  0.91792346     0.35900
C714        C  0.92433708  0.40364477  0.91934630    -0.26100
C715        C  0.93789088  0.39829686  0.95653092    -0.15400
C716        C  0.92968404  0.41076686  0.99357087     0.37000
N717        N  0.94178443  0.40469905  0.03270259    -0.89600
H718        H  0.90478640  0.44001633  0.02048651     0.18100
H719        H  0.92987487  0.39389614  0.89069767     0.18100
N720        N  0.89125867  0.42734916  0.87917566    -0.88700
H721        H  0.92717929  0.39823832  0.05318785     0.35400
H722        H  0.94981623  0.42181406  0.04487197     0.40500
H723        H  0.88271080  0.40995594  0.86910854     0.40200
H724        H  0.90534161  0.43291539  0.85712785     0.35000
C725        C  0.75946406  0.49691915  0.96268862    -0.26700
C726        C  0.77963763  0.50262788  0.99114782    -0.14800
C727        C  0.77271708  0.50928214  0.03258584     0.35900
C728        C  0.74603066  0.50996134  0.04435209    -0.26100
C729        C  0.72582712  0.50455134  0.01569636    -0.15400
C730        C  0.73292060  0.49813218  0.97416075     0.37000
N731        N  0.71374883  0.49280625  0.94267395    -0.89600
H732        H  0.76428629  0.49203972  0.93069466     0.18100
H733        H  0.74099682  0.51514388  0.07612738     0.18100
N734        N  0.79265396  0.51561215  0.06262620    -0.88700
H735        H  0.70225697  0.50943224  0.93829728     0.35400
H736        H  0.70189564  0.47744728  0.95274651     0.40500
H737        H  0.80345082  0.49861901  0.06831377     0.40200
H738        H  0.78430587  0.52088792  0.09105041     0.35000
C739        C  0.92460275  0.60317104  0.01084758    -0.26700
C740        C  0.95125291  0.59654074  0.01099719    -0.14800
C741        C  0.95867058  0.57119294  0.99926554     0.35900
C742        C  0.93939978  0.55286585  0.98810860    -0.26100
C743        C  0.91260644  0.55920122  0.98914637    -0.15400
C744        C  0.90528258  0.58485502  0.00047510     0.37000
N745        N  0.87849276  0.59315212  0.00087113    -0.89600
H746        H  0.91865503  0.62259387  0.01993455     0.18100
H747        H  0.94545995  0.53351272  0.97885479     0.18100
N748        N  0.98580847  0.56415876  0.99777663    -0.88700
H749        H  0.86822738  0.58221687  0.02303779     0.35400
H750        H  0.87041325  0.58992350  0.97132317     0.40500
H751        H  0.99018868  0.55827033  0.96736640     0.40200
H752        H  0.98859476  0.54820630  0.01761135     0.35000
C753        C  0.95799104  0.84997674  0.76790386    -0.26700
C754        C  0.93104924  0.85486854  0.77304079    -0.14800
C755        C  0.92138605  0.86043847  0.81351998     0.35900
C756        C  0.93831271  0.85905237  0.84783064    -0.26100
C757        C  0.96503532  0.85353216  0.84297721    -0.15400
C758        C  0.97519592  0.84968009  0.80240026     0.37000
N759        N  0.00274639  0.84525859  0.79630832    -0.89600
H760        H  0.96559667  0.84600121  0.73698010     0.18100
H761        H  0.93054812  0.86283545  0.87873742     0.18100
N762        N  0.89431995  0.86714300  0.82001166    -0.88700
H763        H  0.00707130  0.84350360  0.76450927     0.35400
H764        H  0.00732613  0.82738837  0.81005459     0.40500
H765        H  0.89127739  0.88531226  0.80615808     0.40200
H766        H  0.89025429  0.86951015  0.85180096     0.35000
C767        C  0.83876401  0.86529149  0.49646084    -0.26700
C768        C  0.85817270  0.87715293  0.47181027    -0.14800
C769        C  0.88290111  0.88232829  0.48973598     0.35900
C770        C  0.88786725  0.87505471  0.53149936    -0.26100
C771        C  0.86874192  0.86198640  0.55527172    -0.15400
C772        C  0.84374327  0.85746737  0.53758412     0.37000
N773        N  0.82343166  0.84471710  0.56127061    -0.89600
H774        H  0.81970881  0.86112307  0.48309903     0.18100
H775        H  0.90697107  0.87892174  0.54491104     0.18100
N776        N  0.90304674  0.89472844  0.46570176    -0.88700
H777        H  0.80644465  0.84239546  0.54336900     0.35400
H778        H  0.81840812  0.85687759  0.58608180     0.40500
H779        H  0.91927440  0.88234201  0.46492499     0.40200
H780        H  0.90858424  0.91176677  0.48118420     0.35000
C781        C  0.85779260  0.95003125  0.25172589    -0.26700
C782        C  0.86141006  0.92303825  0.24785139    -0.14800
C783        C  0.86518306  0.91240788  0.20764545     0.35900
C784        C  0.86430883  0.92862219  0.17248006    -0.26100
C785        C  0.85989746  0.95548440  0.17620609    -0.15400
C786        C  0.85705942  0.96629516  0.21658020     0.37000
N787        N  0.85251140  0.99348192  0.22299162    -0.89600
H788        H  0.85463129  0.95854427  0.28223978     0.18100
H789        H  0.86695895  0.91997411  0.14191892     0.18100
N790        N  0.86935682  0.88506852  0.20205852    -0.88700
H791        H  0.83572605  0.99888976  0.20647632     0.35400
H792        H  0.86862860  0.00391003  0.21159470     0.40500
H793        H  0.88724139  0.88255758  0.18660092     0.40200
H794        H  0.85448273  0.87785783  0.18281989     0.35000
C795        C  0.76762866  0.89740186  0.68015995    -0.26700
C796        C  0.75074692  0.88231685  0.70510192    -0.14800
C797        C  0.76164412  0.86446926  0.73384088     0.35900
C798        C  0.78876448  0.86001316  0.73346005    -0.26100
C799        C  0.80529974  0.87296677  0.70518161    -0.15400
C800        C  0.79482058  0.89284658  0.67964894     0.37000
N801        N  0.81139214  0.90735787  0.65165713    -0.89600
H802        H  0.75943731  0.91157521  0.65880220     0.18100
H803        H  0.79686159  0.84530171  0.75397671     0.18100
N804        N  0.74510817  0.85000379  0.76194378    -0.88700
H805        H  0.80066836  0.92183568  0.63637270     0.35400
H806        H  0.81784334  0.89465553  0.62842295     0.40500
H807        H  0.73665387  0.86330129  0.78259250     0.40200
H808        H  0.75619204  0.83717711  0.78011325     0.35000
C809        C  0.66007500  0.95620502  0.76940062    -0.26700
C810        C  0.64961558  0.93092245  0.77097827    -0.14800
C811        C  0.63747892  0.92210265  0.80803128     0.35900
C812        C  0.63749778  0.93819536  0.84334440    -0.26100
C813        C  0.64903393  0.96303153  0.84234090    -0.15400
C814        C  0.65980717  0.97244690  0.80464174     0.37000
N815        N  0.67163037  0.99783545  0.80272566    -0.89600
H816        H  0.66949101  0.96296857  0.74104664     0.18100
H817        H  0.62870698  0.93114483  0.87205036     0.18100
N818        N  0.62563599  0.89670288  0.80997059    -0.88700
H819        H  0.65656857  0.01149853  0.80535149     0.35400
H820        H  0.68025525  0.00097906  0.77352337     0.40500
H821        H  0.60982369  0.89659992  0.78922804     0.40200
H822        H  0.61785603  0.89314456  0.83965906     0.35000
C823        C  0.62797063  0.88582549  0.53619080    -0.26700
C824        C  0.65373338  0.88349291  0.55156611    -0.14800
C825        C  0.67376374  0.87538922  0.52403916     0.35900
C826        C  0.66776964  0.86935219  0.48268287    -0.26100
C827        C  0.64206135  0.87079429  0.46755793    -0.15400
C828        C  0.62192390  0.87955116  0.49428619     0.37000
N829        N  0.59542649  0.88119132  0.47935694    -0.89600
H830        H  0.61243071  0.89177219  0.55715876     0.18100
H831        H  0.68348721  0.86293203  0.46236422     0.18100
N832        N  0.70017791  0.87200151  0.53824385    -0.88700
H833        H  0.58301696  0.88794976  0.50288350     0.35400
H834        H  0.58921061  0.86228360  0.47222630     0.40500
H835        H  0.71244320  0.88373757  0.52000326     0.40200
H836        H  0.70548255  0.85259117  0.53342204     0.35000
C837        C  0.58241008  0.87685353  0.22327032    -0.26700
C838        C  0.57638178  0.86061098  0.25724564    -0.14800
C839        C  0.55351665  0.84504400  0.25547077     0.35900
C840        C  0.53818699  0.84480641  0.21896236    -0.26100
C841        C  0.54551803  0.85959454  0.18402343    -0.15400
C842        C  0.56725893  0.87654208  0.18677560     0.37000
N843        N  0.57402727  0.89322311  0.15226960    -0.89600
H844        H  0.59960872  0.88923510  0.22450085     0.18100
H845        H  0.52119352  0.83215660  0.21730367     0.18100
N846        N  0.54619694  0.82884342  0.28999300    -0.88700
H847        H  0.59062998  0.90436371  0.15919932     0.35400
H848        H  0.55859320  0.90633022  0.14805742     0.40500
H849        H  0.54555263  0.80957328  0.27961166     0.40200
H850        H  0.52729546  0.83409475  0.29936650     0.35000
C851        C  0.72199037  0.86881656  0.28420182    -0.26700
C852        C  0.70647013  0.88087337  0.31467868    -0.14800
C853        C  0.71855473  0.89743570  0.34414078     0.35900
C854        C  0.74607351  0.89857337  0.34599132    -0.26100
C855        C  0.76170661  0.88385135  0.31869007    -0.15400
C856        C  0.74932490  0.87009956  0.28577742     0.37000
N857        N  0.76374138  0.85654274  0.25420069    -0.89600
H858        H  0.71289620  0.85672508  0.26056954     0.18100
H859        H  0.75528635  0.90995376  0.37037081     0.18100
N860        N  0.70303287  0.91163652  0.37383279    -0.88700
H861        H  0.77404643  0.84122459  0.26790804     0.35400
H862        H  0.77686657  0.86954148  0.24014129     0.40500
H863        H  0.69212389  0.92534078  0.35713273     0.40200
H864        H  0.71503119  0.92217122  0.39419536     0.35000
C865        C  0.66671274  0.75791484  0.67603138    -0.26700
C866        C  0.64090477  0.74957526  0.66939309    -0.14800
C867        C  0.62048701  0.76804154  0.66762669     0.35900
C868        C  0.62651755  0.79462406  0.67260450    -0.26100
C869        C  0.65256549  0.80294972  0.67784770    -0.15400
C870        C  0.67284396  0.78432229  0.67995486     0.37000
N871        N  0.69965895  0.79222612  0.68591388    -0.89600
H872        H  0.68235396  0.74369463  0.67741881     0.18100
H873        H  0.61097310  0.80892606  0.67098316     0.18100
N874        N  0.59380231  0.75980615  0.66169021    -0.88700
H875        H  0.71217230  0.77614758  0.68568250     0.35400
H876        H  0.70109157  0.80048740  0.71564617     0.40500
H877        H  0.59219441  0.75268409  0.63124398     0.40200
H878        H  0.58111755  0.77571320  0.66349941     0.35000
C879        C  0.55424461  0.66339769  0.74851758    -0.26700
C880        C  0.58088240  0.65685048  0.75292184    -0.14800
C881        C  0.59050326  0.65009223  0.79290039     0.35900
C882        C  0.57370584  0.65133777  0.82749063    -0.26100
C883        C  0.54732187  0.65845566  0.82323747    -0.15400
C884        C  0.53739262  0.66409128  0.78326849     0.37000
N885        N  0.51053744  0.67142789  0.77798159    -0.89600
H886        H  0.54655228  0.66866357  0.71814586     0.18100
H887        H  0.58127421  0.64645709  0.85811769     0.18100
N888        N  0.61734528  0.64233913  0.79856073    -0.88700
H889        H  0.50190600  0.65840589  0.75702459     0.35400
H890        H  0.51010700  0.68996091  0.76447961     0.40500
H891        H  0.61980621  0.62454247  0.78330219     0.40200
H892        H  0.62138173  0.63891503  0.83009875     0.35000
C893        C  0.60993500  0.64839476  0.50763767    -0.26700
C894        C  0.62464141  0.63717376  0.53989694    -0.14800
C895        C  0.64504992  0.61965982  0.52996608     0.35900
C896        C  0.65157166  0.61539574  0.48792638    -0.26100
C897        C  0.63798756  0.62797200  0.45570070    -0.15400
C898        C  0.61613828  0.64370678  0.46554690     0.37000
N899        N  0.60159289  0.65646880  0.43302932    -0.89600
H900        H  0.59436193  0.66187844  0.51534871     0.18100
H901        H  0.66826793  0.60327555  0.48034208     0.18100
N902        N  0.66039671  0.60778945  0.56245497    -0.88700
H903        H  0.58713974  0.66850620  0.44572530     0.35400
H904        H  0.59168335  0.64204740  0.41629005     0.40500
H905        H  0.67129080  0.62248241  0.57687849     0.40200
H906        H  0.67403084  0.59482484  0.54980021     0.35000
C907        C  0.65247743  0.56132478  0.24216196    -0.26700
C908        C  0.65189390  0.58851744  0.23795721    -0.14800
C909        C  0.64918256  0.59945090  0.19774831     0.35900
C910        C  0.64807964  0.58318961  0.16279231    -0.26100
C911        C  0.64967359  0.55600514  0.16671725    -0.15400
C912        C  0.65135464  0.54501101  0.20722323     0.37000
N913        N  0.65248202  0.51749901  0.21408194    -0.89600
H914        H  0.65444174  0.55260049  0.27281502     0.18100
H915        H  0.64638036  0.59209068  0.13221854     0.18100
N916        N  0.64828513  0.62708645  0.19190601    -0.88700
H917        H  0.66890038  0.51007805  0.19860242     0.35400
H918        H  0.63550007  0.50899313  0.20197940     0.40500
H919        H  0.63076548  0.63166151  0.17665405     0.40200
H920        H  0.66383411  0.63246334  0.17241326     0.35000
C921        C  0.63258042  0.72350581  0.35332800    -0.26700
C922        C  0.65600814  0.71437901  0.33583694    -0.14800
C923        C  0.67410567  0.73231956  0.31881707     0.35900
C924        C  0.66853323  0.75890169  0.32002046    -0.26100
C925        C  0.64541022  0.76826156  0.33855742    -0.15400
C926        C  0.62709944  0.75028413  0.35514109     0.37000
N927        N  0.60309562  0.75914414  0.37381728    -0.89600
H928        H  0.61870216  0.70967817  0.36630460     0.18100
H929        H  0.68269498  0.77236750  0.30686287     0.18100
N930        N  0.69799676  0.72413156  0.29928263    -0.88700
H931        H  0.59228991  0.74345961  0.38562343     0.35400
H932        H  0.59173331  0.76740897  0.35012447     0.40500
H933        H  0.69343812  0.71084517  0.27566480     0.40200
H934        H  0.70973738  0.71492215  0.32151085     0.35000
C935        C  0.72021616  0.63053047  0.67980283    -0.26700
C936        C  0.71033448  0.64830479  0.65036841    -0.14800
C937        C  0.72771104  0.65849129  0.61975867     0.35900
C938        C  0.75413156  0.65138203  0.62009106    -0.26100
C939        C  0.76420398  0.63442953  0.65039844    -0.15400
C940        C  0.74687819  0.62359292  0.68018009     0.37000
N941        N  0.75622885  0.60585662  0.71129077    -0.89600
H942        H  0.70731505  0.62228229  0.70326739     0.18100
H943        H  0.76705789  0.65987324  0.59688388     0.18100
N944        N  0.71940657  0.67627394  0.58796232    -0.88700
H945        H  0.74575560  0.58844130  0.70838587     0.35400
H946        H  0.75210106  0.61371453  0.74065508     0.40500
H947        H  0.71260976  0.69331867  0.60203973     0.40200
H948        H  0.70440697  0.66762246  0.57061045     0.35000
C949        C  0.85041361  0.55265182  0.75825024    -0.26700
C950        C  0.85563396  0.57944483  0.76162946    -0.14800
C951        C  0.86006939  0.59013285  0.80160854     0.35900
C952        C  0.85907082  0.57415175  0.83694257    -0.26100
C953        C  0.85362462  0.54745041  0.83384176    -0.15400
C954        C  0.84924316  0.53662170  0.79377914     0.37000
N955        N  0.84271032  0.50974447  0.78817037    -0.89600
H956        H  0.84652471  0.54417727  0.72791962     0.18100
H957        H  0.86265965  0.58288042  0.86719626     0.18100
N958        N  0.86535416  0.61733600  0.80680798    -0.88700
H959        H  0.82600295  0.50554003  0.80593780     0.35400
H960        H  0.85829442  0.49839022  0.79878609     0.40500
H961        H  0.88345384  0.61932963  0.82173588     0.40200
H962        H  0.85091664  0.62512189  0.82632811     0.35000
C963        C  0.88610868  0.71530726  0.67106327    -0.26700
C964        C  0.86215609  0.70541331  0.68588233    -0.14800
C965        C  0.84358509  0.72270558  0.70311247     0.35900
C966        C  0.84884538  0.74933532  0.70357518    -0.26100
C967        C  0.87207313  0.75954461  0.68645651    -0.15400
C968        C  0.89123618  0.74224216  0.67084482     0.37000
N969        N  0.91547350  0.75196508  0.65396147    -0.89600
H970        H  0.90042812  0.70207383  0.65794851     0.18100
H971        H  0.83408025  0.76222625  0.71629469     0.18100
N972        N  0.81922568  0.71391381  0.72053598    -0.88700
H973        H  0.92696171  0.73670357  0.64261111     0.35400
H974        H  0.92598981  0.76031840  0.67855142     0.40500
H975        H  0.82313282  0.69964837  0.74297836     0.40200
H976        H  0.80767386  0.70594081  0.69687246     0.35000
C977        C  0.84859993  0.75286721  0.37134014    -0.26700
C978        C  0.87160799  0.74363576  0.35250344    -0.14800
C979        C  0.88877809  0.76158618  0.33322015     0.35900
C980        C  0.88249605  0.78818252  0.33279090    -0.26100
C981        C  0.85893975  0.79723664  0.35015846    -0.15400
C982        C  0.84195119  0.77919041  0.37005445     0.37000
N983        N  0.81786612  0.78683261  0.38951880    -0.89600
H984        H  0.83521953  0.73942876  0.38649896     0.18100
H985        H  0.89579724  0.80169651  0.31763449     0.18100
N986        N  0.91227194  0.75293526  0.31309485    -0.88700
H987        H  0.80524527  0.79422621  0.36677832     0.35400
H988        H  0.82185909  0.80119261  0.41174425     0.40500
H989        H  0.92816644  0.76247188  0.32690714     0.40200
H990        H  0.91143964  0.75857793  0.28174642     0.35000
C991        C  0.90663675  0.64775841  0.49420452    -0.26700
C992        C  0.89549442  0.63266681  0.46243753    -0.14800
C993        C  0.88040983  0.61060686  0.47333843     0.35900
C994        C  0.87455380  0.60566755  0.51549521    -0.26100
C995        C  0.88363808  0.62228586  0.54707988    -0.15400
C996        C  0.90100078  0.64273000  0.53630753     0.37000
N997        N  0.91143569  0.65971066  0.56762097    -0.89600
H998        H  0.91841324  0.66464124  0.48624608     0.18100
H999        H  0.86147167  0.58973096  0.52325102     0.18100
N1000       N  0.86920972  0.59437647  0.44169029    -0.88700
H1001       H  0.90528091  0.67866888  0.56099595     0.35400
H1002       H  0.93188546  0.65926115  0.56547351     0.40500
H1003       H  0.84884305  0.59459048  0.44527935     0.40200
H1004       H  0.87565049  0.57533402  0.44678728     0.35000
C1005       C  0.91779932  0.65034188  0.20529518    -0.26700
C1006       C  0.93033279  0.65084811  0.24431167    -0.14800
C1007       C  0.95795117  0.65094770  0.24583967     0.35900
C1008       C  0.97244324  0.65099152  0.20857289    -0.26100
C1009       C  0.95988050  0.65141393  0.16961693    -0.15400
C1010       C  0.93220832  0.65060751  0.16794941     0.37000
N1011       N  0.91878893  0.64991012  0.12848117    -0.89600
H1012       H  0.89657835  0.65026248  0.20382057     0.18100
H1013       H  0.99366335  0.65124358  0.21018625     0.18100
N1014       N  0.97141566  0.65105688  0.28503957    -0.88700
H1015       H  0.89847646  0.64982636  0.13284006     0.35400
H1016       H  0.92346531  0.63227400  0.11403388     0.40500
H1017       H  0.98342886  0.66755771  0.28599826     0.40200
H1018       H  0.98346890  0.63464201  0.28621340     0.35000
C1019       C  0.79115738  0.65115551  0.29760573    -0.26700
C1020       C  0.80602709  0.63922531  0.32898941    -0.14800
C1021       C  0.79335977  0.62270666  0.35801515     0.35900
C1022       C  0.76605022  0.61955341  0.35632988    -0.26100
C1023       C  0.75103136  0.63282346  0.32644280    -0.15400
C1024       C  0.76391663  0.64820121  0.29611406     0.37000
N1025       N  0.74944341  0.66151007  0.26430933    -0.89600
H1026       H  0.80055483  0.66371196  0.27483951     0.18100
H1027       H  0.75650798  0.60754134  0.37969221     0.18100
N1028       N  0.80789200  0.60985799  0.39022189    -0.88700
H1029       H  0.75646914  0.65541545  0.23526065     0.35400
H1030       H  0.75314335  0.68145255  0.26714409     0.40500
H1031       H  0.80470608  0.58982915  0.38745600     0.40200
H1032       H  0.80046413  0.61583153  0.41908692     0.35000
C1033       C  0.03715771  0.35443428  0.80155464    -0.26700
C1034       C  0.04987592  0.35122541  0.84009989    -0.14800
C1035       C  0.07750771  0.34975781  0.84091552     0.35900
C1036       C  0.09170359  0.35124540  0.80355068    -0.26100
C1037       C  0.07898500  0.35378949  0.76491039    -0.15400
C1038       C  0.05141267  0.35553494  0.76406346     0.37000
N1039       N  0.03774694  0.35839436  0.72531511    -0.89600
H1040       H  0.01598285  0.35590646  0.80035780     0.18100
H1041       H  0.11287377  0.34970227  0.80487030     0.18100
N1042       N  0.09138956  0.34669676  0.87946840    -0.88700
H1043       H  0.02677309  0.37553131  0.72668318     0.35400
H1044       H  0.02470306  0.34278358  0.72235344     0.40500
H1045       H  0.10483170  0.36198648  0.88208696     0.40200
H1046       H  0.10204477  0.32936850  0.87792126     0.35000
C1047       C  0.10601241  0.37103186  0.47125988    -0.26700
C1048       C  0.12766206  0.38693544  0.46164243    -0.14800
C1049       C  0.14086246  0.39985968  0.49433016     0.35900
C1050       C  0.13391515  0.39448593  0.53598630    -0.26100
C1051       C  0.11444342  0.37604294  0.54561626    -0.15400
C1052       C  0.09946661  0.36518970  0.51297971     0.37000
N1053       N  0.07861533  0.34723343  0.52227589    -0.89600
H1054       H  0.09560674  0.36130053  0.44626075     0.18100
H1055       H  0.14531003  0.40307720  0.56097981     0.18100
N1056       N  0.16217205  0.41730929  0.48516085    -0.88700
H1057       H  0.06971075  0.34075376  0.49478247     0.35400
H1058       H  0.06430514  0.35740021  0.53894377     0.40500
H1059       H  0.17010814  0.42488941  0.51271243     0.40200
H1060       H  0.15446146  0.43304568  0.46859193     0.35000
C1061       C  0.15722333  0.44794489  0.24855659    -0.26700
C1062       C  0.15294004  0.42108105  0.24376226    -0.14800
C1063       C  0.14954725  0.41112975  0.20301309     0.35900
C1064       C  0.15118180  0.42786794  0.16830604    -0.26100
C1065       C  0.15568088  0.45471657  0.17304696    -0.15400
C1066       C  0.15844386  0.46476134  0.21400789     0.37000
N1067       N  0.16305373  0.49182600  0.22170710    -0.89600
H1068       H  0.15997687  0.45601851  0.27947443     0.18100
H1069       H  0.14854051  0.41974436  0.13738270     0.18100
N1070       N  0.14432962  0.38403564  0.19652722    -0.88700
H1071       H  0.14690581  0.50245076  0.21104149     0.35400
H1072       H  0.17979497  0.49759484  0.20533852     0.40500
H1073       H  0.15905765  0.37653406  0.17727526     0.40200
H1074       H  0.12648447  0.38234665  0.18075402     0.35000
C1075       C  0.14779111  0.05542341  0.76246564    -0.26700
C1076       C  0.14479328  0.08245832  0.76722407    -0.14800
C1077       C  0.14375464  0.09302464  0.80781902     0.35900
C1078       C  0.14678806  0.07671579  0.84246400    -0.26100
C1079       C  0.15067695  0.04987755  0.83771354    -0.15400
C1080       C  0.15079277  0.03899409  0.79729350     0.37000
N1081       N  0.15462642  0.01151838  0.79162413    -0.89600
H1082       H  0.14871392  0.04713991  0.73142016     0.18100
H1083       H  0.14606973  0.08520309  0.87340435     0.18100
N1084       N  0.14008309  0.12036018  0.81422020    -0.88700
H1085       H  0.17354706  0.00707347  0.80192849     0.35400
H1086       H  0.15396805  0.00668905  0.75995325     0.40500
H1087       H  0.15612886  0.12744917  0.83102922     0.40200
H1088       H  0.12327508  0.12289468  0.83249046     0.35000
C1089       C  0.15396721  0.22360230  0.69855492    -0.26700
C1090       C  0.13670007  0.20718157  0.67690391    -0.14800
C1091       C  0.11572341  0.21834126  0.65441900     0.35900
C1092       C  0.11295659  0.24550041  0.65297551    -0.26100
C1093       C  0.13068757  0.26191599  0.67368645    -0.15400
C1094       C  0.15121801  0.25070017  0.69714867     0.37000
N1095       N  0.16980260  0.26665504  0.71883017    -0.89600
H1096       H  0.17020758  0.21544764  0.71596049     0.18100
H1097       H  0.09700700  0.25374831  0.63501618     0.18100
N1098       N  0.09747181  0.20232542  0.63220908    -0.88700
H1099       H  0.18850715  0.26241576  0.70735680     0.35400
H1100       H  0.16929075  0.26157701  0.75044793     0.40500
H1101       H  0.09801828  0.20769533  0.60073698     0.40200
H1102       H  0.07866532  0.20624298  0.64360501     0.35000
C1103       C  0.11687288  0.25576521  0.32637167    -0.26700
C1104       C  0.12748549  0.24078608  0.35899153    -0.14800
C1105       C  0.14172312  0.25355410  0.39086831     0.35900
C1106       C  0.14624226  0.28034221  0.38812270    -0.26100
C1107       C  0.13678525  0.29515648  0.35444897    -0.15400
C1108       C  0.12123210  0.28280421  0.32379284     0.37000
N1109       N  0.11046029  0.29743530  0.28961579    -0.89600
H1110       H  0.10568802  0.24620605  0.30206124     0.18100
H1111       H  0.15783921  0.28954975  0.41230537     0.18100
N1112       N  0.15278913  0.23984783  0.42558295    -0.88700
H1113       H  0.09875080  0.28558245  0.27085776     0.35400
H1114       H  0.12612912  0.30358139  0.27085689     0.40500
H1115       H  0.16567120  0.22570396  0.41435208     0.40200
H1116       H  0.13762804  0.23085899  0.44225074     0.35000
C1117       C  0.09924510  0.13390004  0.49238993    -0.26700
C1118       C  0.11598293  0.12299514  0.46238434    -0.14800
C1119       C  0.13571908  0.10556428  0.47564501     0.35900
C1120       C  0.14001464  0.10162936  0.51842671    -0.26100
C1121       C  0.12527173  0.11502053  0.54843936    -0.15400
C1122       C  0.10384688  0.13043557  0.53509463     0.37000
N1123       N  0.08794779  0.14482235  0.56376436    -0.89600
H1124       H  0.08387530  0.14714012  0.48278629     0.18100
H1125       H  0.15631164  0.08954776  0.52813331     0.18100
N1126       N  0.15285294  0.09339685  0.44610103    -0.88700
H1127       H  0.09995348  0.15772526  0.58023502     0.35400
H1128       H  0.07920136  0.13179945  0.58463099     0.40500
H1129       H  0.15165577  0.07325022  0.45042550     0.40200
H1130       H  0.17205976  0.09921140  0.45268447     0.35000
C1131       C  0.09136114  0.15029614  0.20700170    -0.26700
C1132       C  0.07897379  0.14729695  0.24587582    -0.14800
C1133       C  0.05148535  0.14397166  0.24721072     0.35900
C1134       C  0.03699105  0.14465959  0.20976558    -0.26100
C1135       C  0.04938157  0.14841365  0.17098707    -0.15400
C1136       C  0.07697191  0.15084623  0.16980920     0.37000
N1137       N  0.09061513  0.15406263  0.13099814    -0.89600
H1138       H  0.11243444  0.15286930  0.20534760     0.18100
H1139       H  0.01589158  0.14232963  0.21094207     0.18100
N1140       N  0.03837175  0.13992707  0.28641931    -0.88700
H1141       H  0.10405363  0.13884481  0.12799168     0.35400
H1142       H  0.10112671  0.17153899  0.13220347     0.40500
H1143       H  0.04485067  0.12216785  0.29847856     0.40200
H1144       H  0.01813891  0.13804755  0.28196331     0.35000
C1145       C  0.41032324  0.14640824  0.81047188    -0.26700
C1146       C  0.42140102  0.14817443  0.77043490    -0.14800
C1147       C  0.44879425  0.15156018  0.76666457     0.35900
C1148       C  0.46433019  0.15379475  0.80269036    -0.26100
C1149       C  0.45308544  0.15281423  0.84268491    -0.15400
C1150       C  0.42578976  0.14868008  0.84640652     0.37000
N1151       N  0.41358337  0.14655524  0.88658420    -0.89600
H1152       H  0.38935519  0.14380362  0.81411513     0.18100
H1153       H  0.48528416  0.15658906  0.79924378     0.18100
N1154       N  0.46096674  0.15310763  0.72642685    -0.88700
H1155       H  0.40432964  0.12841874  0.88844432     0.35400
H1156       H  0.39918563  0.16094580  0.88879643     0.40500
H1157       H  0.47500134  0.13835915  0.72447969     0.40200
H1158       H  0.47067816  0.17099630  0.72424406     0.35000
C1159       C  0.25309922  0.11767104  0.68216231    -0.26700
C1160       C  0.23769287  0.13335720  0.65591411    -0.14800
C1161       C  0.25011030  0.15241713  0.63106253     0.35900
C1162       C  0.27713280  0.15657963  0.63480569    -0.26100
C1163       C  0.29238088  0.14189726  0.66264532    -0.15400
C1164       C  0.28028436  0.12171185  0.68562750     0.37000
N1165       N  0.29532635  0.10555111  0.71302696    -0.89600
H1166       H  0.24394764  0.10268731  0.70107695     0.18100
H1167       H  0.28612767  0.17170133  0.61598612     0.18100
N1168       N  0.23539709  0.16776046  0.60202092    -0.88700
H1169       H  0.29301710  0.08624019  0.70346436     0.35400
H1170       H  0.28756526  0.10726483  0.74312144     0.40500
H1171       H  0.24328632  0.16487757  0.57224073     0.40200
H1172       H  0.23783733  0.18736062  0.60981677     0.35000
C1173       C  0.25086271  0.16066550  0.32875051    -0.26700
C1174       C  0.26002481  0.13565105  0.33841188    -0.14800
C1175       C  0.24179698  0.11547846  0.34534342     0.35900
C1176       C  0.21484266  0.12091340  0.34420874    -0.26100
C1177       C  0.20568702  0.14627384  0.33663425    -0.15400
C1178       C  0.22410922  0.16626613  0.32817139     0.37000
N1179       N  0.21644034  0.19242937  0.31876291    -0.89600
H1180       H  0.26463784  0.17635849  0.32298168     0.18100
H1181       H  0.20105377  0.10529572  0.35037959     0.18100
N1182       N  0.25049850  0.08947043  0.35333503    -0.88700
H1183       H  0.20711803  0.20042358  0.34480657     0.35400
H1184       H  0.20349221  0.19213121  0.29349822     0.40500
H1185       H  0.24253268  0.07734394  0.33041789     0.40200
H1186       H  0.24296900  0.08361612  0.38224159     0.35000
C1187       C  0.36152825  0.10838573  0.54582659    -0.26700
C1188       C  0.38121723  0.12630451  0.55659436    -0.14800
C1189       C  0.39764318  0.13632570  0.52511521     0.35900
C1190       C  0.39206958  0.13097753  0.48308177    -0.26100
C1191       C  0.37041266  0.11548683  0.47213363    -0.15400
C1192       C  0.35610291  0.10270158  0.50380996     0.37000
N1193       N  0.33545339  0.08484649  0.49310312    -0.89600
H1194       H  0.34915535  0.10015404  0.57001317     0.18100
H1195       H  0.40365032  0.14041183  0.45902174     0.18100
N1196       N  0.41960790  0.15239786  0.53572333    -0.88700
H1197       H  0.32677718  0.07715717  0.52004834     0.35400
H1198       H  0.34402863  0.06922335  0.47736685     0.40500
H1199       H  0.41738182  0.17035410  0.52077017     0.40200
H1200       H  0.43650467  0.14356755  0.52393329     0.35000
C1201       C  0.35668467  0.05415878  0.25931176    -0.26700
C1202       C  0.35844894  0.08132929  0.25498879    -0.14800
C1203       C  0.36197019  0.09205754  0.21479326     0.35900
C1204       C  0.36223951  0.07572629  0.17990234    -0.26100
C1205       C  0.35913473  0.04867529  0.18389790    -0.15400
C1206       C  0.35712695  0.03766514  0.22423704     0.37000
N1207       N  0.35451879  0.01000697  0.22953207    -0.89600
H1208       H  0.35419970  0.04575098  0.29009919     0.18100
H1209       H  0.36447544  0.08446341  0.14927522     0.18100
N1210       N  0.36458909  0.11958953  0.20889705    -0.88700
H1211       H  0.35171096  0.00532670  0.26100155     0.35400
H1212       H  0.37235794  0.00159892  0.22089477     0.40500
H1213       H  0.34946733  0.12580502  0.18927952     0.40200
H1214       H  0.38240889  0.12315719  0.19374293     0.35000
C1215       C  0.24727473  0.34981934  0.62627210    -0.26700
C1216       C  0.25810570  0.36914520  0.65186946    -0.14800
C1217       C  0.24128491  0.38489287  0.67598443     0.35900
C1218       C  0.21417829  0.38020451  0.67550252    -0.26100
C1219       C  0.20351838  0.35998707  0.65141835    -0.15400
C1220       C  0.22027778  0.34512323  0.62574577     0.37000
N1221       N  0.21014054  0.32493284  0.59947260    -0.89600
H1222       H  0.25988472  0.33778245  0.60712009     0.18100
H1223       H  0.20155983  0.39197377  0.69505606     0.18100
N1224       N  0.25161581  0.40501755  0.70215645    -0.88700
H1225       H  0.21908236  0.30742057  0.60796606     0.35400
H1226       H  0.21542678  0.32916169  0.56864976     0.40500
H1227       H  0.24600330  0.40105888  0.73292971     0.40200
H1228       H  0.24301947  0.42261831  0.69325577     0.35000
C1229       C  0.34403365  0.41282160  0.80364468    -0.26700
C1230       C  0.35018302  0.42229401  0.76371379    -0.14800
C1231       C  0.35680955  0.44885248  0.75886253     0.35900
C1232       C  0.35639072  0.46536727  0.79394633    -0.26100
C1233       C  0.34979641  0.45587220  0.83380553    -0.15400
C1234       C  0.34377707  0.42919996  0.83848119     0.37000
N1235       N  0.33742107  0.41846590  0.87854504    -0.89600
H1236       H  0.33892108  0.39251460  0.80797548     0.18100
H1237       H  0.36148316  0.48570982  0.79015126     0.18100
N1238       N  0.36407836  0.45896355  0.71860661    -0.88700
H1239       H  0.35086933  0.40370208  0.88516690     0.35400
H1240       H  0.31875996  0.41007944  0.87673528     0.40500
H1241       H  0.38164195  0.45000953  0.70990163     0.40200
H1242       H  0.36802132  0.47890322  0.72039124     0.35000
C1243       C  0.38187900  0.28490480  0.67549215    -0.26700
C1244       C  0.35803728  0.29456627  0.69111541    -0.14800
C1245       C  0.33957166  0.27690306  0.70781123     0.35900
C1246       C  0.34445382  0.25012951  0.70609359    -0.26100
C1247       C  0.36736095  0.24036756  0.68760571    -0.15400
C1248       C  0.38665053  0.25800469  0.67349279     0.37000
N1249       N  0.41097475  0.24877581  0.65684155    -0.89600
H1250       H  0.39647693  0.29818776  0.66310051     0.18100
H1251       H  0.32961681  0.23688427  0.71786507     0.18100
N1252       N  0.31550807  0.28592141  0.72571811    -0.88700
H1253       H  0.42618184  0.25663585  0.67474363     0.35400
H1254       H  0.41289793  0.25590005  0.62640467     0.40500
H1255       H  0.31452495  0.27923119  0.75653028     0.40200
H1256       H  0.29998492  0.27755879  0.70915371     0.35000
C1257       C  0.37646277  0.21594638  0.33014112    -0.26700
C1258       C  0.36233276  0.20509783  0.36345160    -0.14800
C1259       C  0.35472849  0.22107091  0.39710494     0.35900
C1260       C  0.36002525  0.24780515  0.39559540    -0.26100
C1261       C  0.37309340  0.25884202  0.36127376    -0.15400
C1262       C  0.38182049  0.24262553  0.32866810     0.37000
N1263       N  0.39504960  0.25324931  0.29302810    -0.89600
H1264       H  0.38253482  0.20386542  0.30418352     0.18100
H1265       H  0.35352052  0.26002217  0.42112843     0.18100
N1266       N  0.34171115  0.21029816  0.43285134    -0.88700
H1267       H  0.38406528  0.24874730  0.26646194     0.35400
H1268       H  0.41325242  0.24406807  0.29035777     0.40500
H1269       H  0.32367580  0.21969418  0.43628238     0.40200
H1270       H  0.35305643  0.21441209  0.45920694     0.35000
C1271       C  0.36892421  0.38909958  0.47533364    -0.26700
C1272       C  0.38678856  0.36918734  0.46583352    -0.14800
C1273       C  0.39944382  0.35601605  0.49875164     0.35900
C1274       C  0.39256864  0.36156432  0.54023999    -0.26100
C1275       C  0.37257110  0.37940652  0.54935976    -0.15400
C1276       C  0.36134191  0.39404784  0.51673788     0.37000
N1277       N  0.34142710  0.41300179  0.52563344    -0.89600
H1278       H  0.35915037  0.39936867  0.45023288     0.18100
H1279       H  0.40140710  0.35031029  0.56515465     0.18100
N1280       N  0.41840902  0.33620937  0.49021118    -0.88700
H1281       H  0.33486766  0.42180412  0.49807091     0.35400
H1282       H  0.35004780  0.42766807  0.54352467     0.40500
H1283       H  0.41176652  0.31881472  0.50356496     0.40200
H1284       H  0.43591635  0.34139306  0.50499081     0.35000
C1285       C  0.42787242  0.35819672  0.16965584    -0.26700
C1286       C  0.45497452  0.35391645  0.17264861    -0.14800
C1287       C  0.46614563  0.34923350  0.21232721     0.35900
C1288       C  0.44987175  0.34867990  0.24787536    -0.26100
C1289       C  0.42266733  0.35244742  0.24466966    -0.15400
C1290       C  0.41171396  0.35752881  0.20504960     0.37000
N1291       N  0.38418108  0.36214374  0.20043134    -0.89600
H1292       H  0.41905411  0.36222448  0.13956647     0.18100
H1293       H  0.45842556  0.34457829  0.27811163     0.18100
N1294       N  0.49381227  0.34462715  0.21644877    -0.88700
H1295       H  0.37666365  0.34832581  0.17970207     0.35400
H1296       H  0.38172386  0.38054743  0.18703369     0.40500
H1297       H  0.49799268  0.32709357  0.20134045     0.40200
H1298       H  0.49887964  0.34199902  0.24778809     0.35000
C1299       C  0.28062280  0.33804256  0.31617266    -0.26700
C1300       C  0.29748168  0.35667494  0.33367817    -0.14800
C1301       C  0.28659860  0.37932014  0.35150685     0.35900
C1302       C  0.25924564  0.38233876  0.35311887    -0.26100
C1303       C  0.24235686  0.36333886  0.33664432    -0.15400
C1304       C  0.25333114  0.34121370  0.31721599     0.37000
N1305       N  0.23692486  0.32160152  0.29908449    -0.89600
H1306       H  0.28860595  0.32060218  0.30209989     0.18100
H1307       H  0.25122478  0.39960472  0.36765916     0.18100
N1308       N  0.30313759  0.39907253  0.36889617    -0.88700
H1309       H  0.24097718  0.30388604  0.31378290     0.35400
H1310       H  0.24193561  0.31984688  0.26754975     0.40500
H1311       H  0.29819265  0.40132335  0.40037081     0.40200
H1312       H  0.29914749  0.41657740  0.35352261     0.35000
loop_ 
_geom_bond_atom_site_label_1 
_geom_bond_atom_site_label_2 
_geom_bond_distance 
_geom_bond_site_symmetry_2 
_ccdc_geom_bond_type 
In1           O3   2.250       .  S
In1           O4   2.243       .  S
In1          O12   2.240       .  S
In1           O6   2.261       .  S
In1           O8   2.245       .  S
In1           O9   2.236       .  S
In1          O10   2.252       .  S
In1          O13   2.231       .  S
C2            O8   1.260       .  A
C2           O10   1.259       .  A
C2         C1272   1.480       .  S
O3           C11   1.261       .  A
O4           C11   1.260       .  A
C5           O12   1.258       .  A
C5            O6   1.262       .  A
C5         C1289   1.485       .  S
C7            O9   1.261       .  A
C7           O13   1.261       .  A
C7         C1261   1.472       .  S
C11        C1300   1.483       .  S
In14         O16   2.253       .  S
In14         O17   2.239       .  S
In14         O25   2.233       .  S
In14         O19   2.259       .  S
In14         O21   2.252       .  S
In14         O22   2.228       .  S
In14         O23   2.244       .  S
In14         O26   2.247       .  S
C15          O21   1.259       .  A
C15          O23   1.258       .  A
C15        C1275   1.476       .  S
O16          C24   1.261       .  A
O17          C24   1.260       .  A
C18          O25   1.259       .  A
C18          O19   1.260       .  A
C18        C1230   1.483       .  S
C20          O22   1.261       .  A
C20          O26   1.261       .  A
C20        C1216   1.477       .  S
C24        C1244   1.483       .  S
In27         O29   2.224       .  S
In27         O30   2.227       .  S
In27         O38   2.231       .  S
In27         O32   2.253       .  S
In27         O34   2.247       .  S
In27         O35   2.228       .  S
In27         O36   2.228       .  S
In27         O39   2.257       .  S
C28          O34   1.261       .  A
C28          O36   1.261       .  A
C28        C1191   1.478       .  S
O29          C37   1.261       .  A
O30          C37   1.264       .  A
C31          O38   1.258       .  A
C31          O32   1.261       .  A
C31        C1202   1.482       .  S
C33          O35   1.258       .  A
C33          O39   1.262       .  A
C33        C1174   1.477       .  S
C37        C1258   1.472       .  S
In40         O42   2.248       .  S
In40         O43   2.223       .  S
In40         O51   2.241       .  S
In40         O45   2.249       .  S
In40         O47   2.243       .  S
In40         O48   2.227       .  S
In40         O49   2.244       .  S
In40         O52   2.262       .  S
C41          O47   1.260       .  A
C41          O49   1.262       .  A
C41        C1188   1.478       .  S
O42          C50   1.266       .  A
O43          C50   1.263       .  A
C44          O51   1.259       .  A
C44          O45   1.259       .  A
C44        C1146   1.484       .  S
C46          O48   1.259       .  A
C46          O52   1.263       .  A
C46        C1247   1.481       .  S
C50        C1163   1.483       .  S
In53         O55   2.253       .  S
In53         O56   2.238       .  S
In53         O64   2.234       .  S
In53         O58   2.265       .  S
In53         O60   2.258       .  S
In53         O61   2.243       .  S
In53         O62   2.243       .  S
In53         O65   2.255       .  S
C54          O60   1.262       .  A
C54          O62   1.257       .  A
C54        C1118   1.484       .  S
O55          C63   1.260       .  A
O56          C63   1.257       .  A
C57          O64   1.258       .  A
C57          O58   1.262       .  A
C57        C1132   1.484       .  S
C59          O61   1.261       .  A
C59          O65   1.263       .  A
C59        C1104   1.485       .  S
C63        C1177   1.480       .  S
In66         O68   2.249       .  S
In66         O69   2.240       .  S
In66         O77   2.238       .  S
In66         O71   2.245       .  S
In66         O73   2.248       .  S
In66         O74   2.232       .  S
In66         O75   2.237       .  S
In66         O78   2.258       .  S
C67          O73   1.260       .  A
C67          O75   1.260       .  A
C67        C1121   1.480       .  S
O68          C76   1.260       .  A
O69          C76   1.261       .  A
C70          O77   1.259       .  A
C70          O71   1.260       .  A
C70        C1076   1.481       .  S
C72          O74   1.260       .  A
C72          O78   1.261       .  A
C72        C1160   1.482       .  S
C76        C1090   1.482       .  S
In79         O81   2.228       .  S
In79         O82   2.264       .  S
In79         O90   2.254       .  S
In79         O84   2.271       .  S
In79         O86   2.261       .  S
In79         O87   2.236       .  S
In79         O88   2.244       .  S
In79         O91   2.262       .  S
C80          O86   1.263       .  A
C80          O88   1.262       .  A
C80        C1048   1.485       .  S
O81          C89   1.261       .  A
O82          C89   1.266       .  A
C83          O90   1.259       .  A
C83          O84   1.261       .  A
C83        C1062   1.494       .  S
C85          O87   1.258       .  A
C85          O91   1.263       .  A
C85        C1303   1.485       .  S
C89        C1107   1.487       .  S
In92         O94   2.245       .  S
In92         O95   2.211       .  S
In92        O103   2.233       .  S
In92         O97   2.257       .  S
In92         O99   2.247       .  S
In92        O100   2.227       .  S
In92        O101   2.247       .  S
In92        O104   2.254       .  S
C93          O99   1.261       .  A
C93         O101   1.262       .  A
C93        C1051   1.483       .  S
O94         C102   1.265       .  A
O95         C102   1.260       .  A
C96         O103   1.258       .  A
C96          O97   1.261       .  A
C96        C1037   1.481       .  S
C98         O100   1.258       .  A
C98         O104   1.264       .  A
C98        C1093   1.482       .  S
C102       C1219   1.477       .  S
In105       O107   2.255       .  S
In105       O108   2.241       .  S
In105       O116   2.233       .  S
In105       O110   2.256       .  S
In105       O112   2.249       .  S
In105       O113   2.238       .  S
In105       O114   2.234       .  S
In105       O117   2.238       .  S
C106        O112   1.261       .  A
C106        O114   1.261       .  A
C106        C992   1.478       .  S
O107        C115   1.259       .  A
O108        C115   1.259       .  A
C109        O116   1.258       .  A
C109        O110   1.261       .  A
C109       C1006   1.480       .  S
C111        O113   1.263       .  A
C111        O117   1.259       .  A
C111       C1020   1.478       .  S
C115        C978   1.482       .  S
In118       O120   2.255       .  S
In118       O121   2.246       .  S
In118       O129   2.215       .  S
In118       O123   2.271       .  S
In118       O125   2.243       .  S
In118       O126   2.228       .  S
In118       O127   2.268       .  S
In118       O130   2.256       .  S
C119        O125   1.255       .  A
C119        O127   1.262       .  A
C119        C995   1.484       .  S
O120        C128   1.260       .  A
O121        C128   1.263       .  A
C122        O129   1.257       .  A
C122        O123   1.264       .  A
C122        C950   1.485       .  S
C124        O126   1.257       .  A
C124        O130   1.261       .  A
C124        C964   1.475       .  S
C128        C939   1.486       .  S
In131       O133   2.249       .  S
In131       O134   2.213       .  S
In131       O142   2.231       .  S
In131       O136   2.256       .  S
In131       O138   2.242       .  S
In131       O139   2.234       .  S
In131       O140   2.246       .  S
In131       O143   2.246       .  S
C132        O138   1.259       .  A
C132        O140   1.260       .  A
C132        C897   1.479       .  S
O133        C141   1.265       .  A
O134        C141   1.261       .  A
C135        O142   1.256       .  A
C135        O136   1.260       .  A
C135        C908   1.481       .  S
C137        O139   1.258       .  A
C137        O143   1.261       .  A
C137        C922   1.472       .  S
C141       C1023   1.479       .  S
In144       O146   2.258       .  S
In144       O147   2.222       .  S
In144       O155   2.226       .  S
In144       O149   2.257       .  S
In144       O151   2.241       .  S
In144       O152   2.222       .  S
In144       O153   2.235       .  S
In144       O156   2.260       .  S
C145        O151   1.261       .  A
C145        O153   1.261       .  A
C145        C894   1.475       .  S
O146        C154   1.261       .  A
O147        C154   1.258       .  A
C148        O155   1.258       .  A
C148        O149   1.261       .  A
C148        C880   1.484       .  S
C150        O152   1.260       .  A
C150        O156   1.266       .  A
C150        C936   1.488       .  S
C154        C866   1.473       .  S
In157       O159   2.252       .  S
In157       O160   2.237       .  S
In157       O168   2.241       .  S
In157       O162   2.264       .  S
In157       O164   2.282       .  S
In157       O165   2.228       .  S
In157       O166   2.214       .  S
In157       O169   2.243       .  S
C158        O164   1.265       .  A
C158        O166   1.258       .  A
C158        C827   1.481       .  S
O159        C167   1.262       .  A
O160        C167   1.259       .  A
C161        O168   1.258       .  A
C161        O162   1.258       .  A
C161        C838   1.485       .  S
C163        O165   1.263       .  A
C163        O169   1.263       .  A
C163        C852   1.480       .  S
C167        C925   1.483       .  S
In170       O172   2.253       .  S
In170       O173   2.231       .  S
In170       O181   2.227       .  S
In170       O175   2.246       .  S
In170       O177   2.276       .  S
In170       O178   2.204       .  S
In170       O179   2.213       .  S
In170       O182   2.260       .  S
C171        O177   1.263       .  A
C171        O179   1.258       .  A
C171        C824   1.486       .  S
O172        C180   1.263       .  A
O173        C180   1.260       .  A
C174        O181   1.258       .  A
C174        O175   1.262       .  A
C174        C810   1.477       .  S
C176        O178   1.259       .  A
C176        O182   1.264       .  A
C176        C869   1.476       .  S
C180        C796   1.484       .  S
In183       O185   2.246       .  S
In183       O186   2.230       .  S
In183       O194   2.229       .  S
In183       O188   2.256       .  S
In183       O190   2.275       .  S
In183       O191   2.221       .  S
In183       O192   2.217       .  S
In183       O195   2.257       .  S
C184        O190   1.264       .  A
C184        O192   1.259       .  A
C184        C768   1.486       .  S
O185        C193   1.264       .  A
O186        C193   1.260       .  A
C187        O194   1.258       .  A
C187        O188   1.263       .  A
C187        C782   1.485       .  S
C189        O191   1.258       .  A
C189        O195   1.263       .  A
C189        C981   1.481       .  S
C193        C855   1.485       .  S
In196       O198   2.263       .  S
In196       O199   2.224       .  S
In196       O207   2.222       .  S
In196       O201   2.284       .  S
In196       O203   2.283       .  S
In196       O204   2.223       .  S
In196       O205   2.219       .  S
In196       O208   2.254       .  S
C197        O203   1.265       .  A
C197        O205   1.257       .  A
C197        C771   1.485       .  S
O198        C206   1.263       .  A
O199        C206   1.259       .  A
C200        O207   1.254       .  A
C200        O201   1.262       .  A
C200        C754   1.489       .  S
C202        O204   1.262       .  A
C202        O208   1.264       .  A
C202        C799   1.481       .  S
C206        C967   1.484       .  S
In209       O211   2.271       .  S
In209       O212   2.250       .  S
In209       O220   2.271       .  S
In209       O214   2.270       .  S
In209       O216   2.249       .  S
In209       O217   2.270       .  S
In209       O218   2.258       .  S
In209       O221   2.236       .  S
C210        O216   1.262       .  A
C210        O218   1.261       .  A
C210        C743   1.487       .  S
O211        C219   1.263       .  A
O212        C219   1.260       .  A
C213        O220   1.260       .  A
C213        O214   1.259       .  A
C213        C726   1.497       .  S
C215        O217   1.260       .  A
C215        O221   1.258       .  A
C215        C953   1.485       .  S
C219        C712   1.493       .  S
In222       O224   2.248       .  S
In222       O225   2.256       .  S
In222       O233   2.271       .  S
In222       O227   2.263       .  S
In222       O229   2.266   1_455  S
In222       O230   2.248   1_455  S
In222       O231   2.253   1_455  S
In222       O234   2.238   1_455  S
C223        O229   1.262       .  A
C223        O231   1.258       .  A
C223        C740   1.482       .  S
O224        C232   1.263       .  A
O225        C232   1.262       .  A
C226        O233   1.261       .  A
C226        O227   1.261       .  A
C226        C698   1.497       .  S
C228        O230   1.261       .  A
C228        O234   1.259       .  A
C228       C1009   1.478       .  S
C232        C687   1.492       .  S
In235       O237   2.249   1_565  S
In235       O238   2.259   1_565  S
In235       O246   2.266   1_565  S
In235       O240   2.271       .  S
In235       O242   2.264       .  S
In235       O243   2.234       .  S
In235       O244   2.251       .  S
In235       O247   2.255       .  S
C236        O242   1.263       .  A
C236        O244   1.258       .  A
C236        C673   1.488       .  S
O237        C245   1.263       .  A
O238        C245   1.263       .  A
C239        O246   1.260       .  A
C239        O240   1.261   1_545  A
C239        C659   1.499       .  S
C241        O243   1.259       .  A
C241        O247   1.262       .  A
C241        C785   1.483       .  S
C245        C642   1.493       .  S
In248       O250   2.255       .  S
In248       O251   2.240       .  S
In248       O259   2.269   1_556  S
In248       O253   2.255       .  S
In248       O255   2.254   1_455  S
In248       O256   2.263       .  S
In248       O257   2.259   1_455  S
In248       O260   2.226   1_455  S
C249        O255   1.262       .  A
C249        O257   1.260       .  A
C249        C670   1.486       .  S
O250        C258   1.263       .  A
O251        C258   1.260       .  A
C252        O259   1.261   1_556  A
C252        O253   1.260       .  A
C252        C701   1.490       .  S
C254        O256   1.262   1_655  A
C254        O260   1.259       .  A
C254        C757   1.483       .  S
C258        C628   1.485       .  S
In261       O263   2.251       .  S
In261       O264   2.261       .  S
In261       O272   2.272       .  S
In261       O266   2.266       .  S
In261       O268   2.268       .  S
In261       O269   2.273       .  S
In261       O270   2.242       .  S
In261       O273   2.225       .  S
C262        O268   1.261       .  A
C262        O270   1.259       .  A
C262        C614   1.484       .  S
O263        C271   1.263       .  A
O264        C271   1.263       .  A
C265        O272   1.259       .  A
C265        O266   1.260       .  A
C265        C600   1.498       .  S
C267        O269   1.262       .  A
C267        O273   1.257       .  A
C267        C883   1.478       .  S
C271        C586   1.493       .  S
In274       O276   2.264       .  S
In274       O277   2.256       .  S
In274       O285   2.268       .  S
In274       O279   2.273       .  S
In274       O281   2.242       .  S
In274       O282   2.231       .  S
In274       O283   2.264       .  S
In274       O286   2.251       .  S
C275        O281   1.259       .  A
C275        O283   1.262       .  A
C275        C617   1.485       .  S
O276        C284   1.263       .  A
O277        C284   1.260       .  A
C278        O285   1.259       .  A
C278        O279   1.260       .  A
C278        C729   1.498       .  S
C280        O282   1.259       .  A
C280        O286   1.262       .  A
C280        C911   1.484       .  S
C284        C572   1.493       .  S
In287       O289   2.253       .  S
In287       O290   2.252       .  S
In287       O298   2.270       .  S
In287       O292   2.277       .  S
In287       O294   2.263       .  S
In287       O295   2.268       .  S
In287       O296   2.253       .  S
In287       O299   2.226       .  S
C288        O294   1.265       .  A
C288        O296   1.260       .  A
C288        C561   1.488       .  S
O289        C297   1.261       .  A
O290        C297   1.261       .  A
C291        O298   1.259       .  A
C291        O292   1.260       .  A
C291        C603   1.494       .  S
C293        O295   1.263       .  A
C293        O299   1.259       .  A
C293        C841   1.477       .  S
C297        C544   1.488       .  S
In300       O302   2.260       .  S
In300       O303   2.248       .  S
In300       O311   2.263       .  S
In300       O305   2.278   1_556  S
In300       O307   2.248   1_545  S
In300       O308   2.255       .  S
In300       O309   2.256   1_545  S
In300       O312   2.232   1_545  S
C301        O307   1.262       .  A
C301        O309   1.261       .  A
C301        C558   1.482   1_556  S
O302        C310   1.264       .  A
O303        C310   1.260       .  A
C304        O311   1.258       .  A
C304        O305   1.260   1_556  A
C304        C656   1.496       .  S
C306        O308   1.261   1_565  A
C306        O312   1.257       .  A
C306        C813   1.477       .  S
C310        C530   1.490       .  S
In313       O315   2.239       .  S
In313       O316   2.247       .  S
In313       O324   2.264       .  S
In313       O318   2.273       .  S
In313       O320   2.259       .  S
In313       O321   2.254       .  S
In313       O322   2.235       .  S
In313       O325   2.261       .  S
C314        O320   1.264       .  A
C314        O322   1.258       .  A
C314        C516   1.481       .  S
O315        C323   1.262       .  A
O316        C323   1.262       .  A
C317        O324   1.260       .  A
C317        O318   1.261       .  A
C317        C505   1.495       .  S
C319        O321   1.259       .  A
C319        O325   1.260       .  A
C319        C575   1.491       .  S
C323       C1286   1.483       .  S
In326       O328   2.231       .  S
In326       O329   2.254       .  S
In326       O337   2.270       .  S
In326       O331   2.250       .  S
In326       O333   2.258       .  S
In326       O334   2.257       .  S
In326       O335   2.241       .  S
In326       O338   2.255       .  S
C327        O333   1.263       .  A
C327        O335   1.258       .  A
C327        C519   1.477       .  S
O328        C336   1.261       .  A
O329        C336   1.264       .  A
C330        O337   1.261       .  A
C330        O331   1.260       .  A
C330        C488   1.493       .  S
C332        O334   1.261       .  A
C332        O338   1.260       .  A
C332        C589   1.490       .  S
C336       C1233   1.485       .  S
In339       O341   2.230       .  S
In339       O342   2.258       .  S
In339       O350   2.273       .  S
In339       O344   2.273   1_556  S
In339       O346   2.265       .  S
In339       O347   2.262       .  S
In339       O348   2.245       .  S
In339       O351   2.249       .  S
C340        O346   1.264       .  A
C340        O348   1.259       .  A
C340        C474   1.485   1_556  S
O341        C349   1.259       .  A
O342        C349   1.263       .  A
C343        O350   1.260       .  A
C343        O344   1.261   1_556  A
C343        C502   1.499       .  S
C345        O347   1.262       .  A
C345        O351   1.262       .  A
C345        C533   1.492       .  S
C349       C1149   1.483       .  S
In352       O354   2.227       .  S
In352       O355   2.263       .  S
In352       O363   2.271   1_545  S
In352       O357   2.261       .  S
In352       O359   2.253       .  S
In352       O360   2.250   1_545  S
In352       O361   2.263       .  S
In352       O364   2.243   1_545  S
C353        O359   1.261       .  A
C353        O361   1.260       .  A
C353        C477   1.484       .  S
O354        C362   1.259       .  A
O355        C362   1.263       .  A
C356        O363   1.260   1_545  A
C356        O357   1.260       .  A
C356        C463   1.496   1_545  S
C358        O360   1.263       .  A
C358        O364   1.262       .  A
C358        C547   1.486       .  S
C362       C1205   1.483       .  S
In365       O367   2.231       .  S
In365       O368   2.265       .  S
In365       O376   2.259       .  S
In365       O370   2.283       .  S
In365       O372   2.249       .  S
In365       O373   2.257   1_455  S
In365       O374   2.257       .  S
In365       O377   2.251   1_455  S
C366        O372   1.262       .  A
C366        O374   1.259       .  A
C366        C446   1.486       .  S
O367        C375   1.258       .  A
O368        C375   1.264       .  A
C369        O376   1.259       .  A
C369        O370   1.261       .  A
C369        C432   1.496       .  S
C371        O373   1.263       .  A
C371        O377   1.264       .  A
C371        C645   1.492       .  S
C375       C1135   1.487       .  S
In378       O380   2.229       .  S
In378       O381   2.249       .  S
In378       O389   2.262       .  S
In378       O383   2.262       .  S
In378       O385   2.252       .  S
In378       O386   2.239   1_545  S
In378       O387   2.259       .  S
In378       O390   2.236   1_545  S
C379        O385   1.262       .  A
C379        O387   1.259       .  A
C379        C449   1.484       .  S
O380        C388   1.260       .  A
O381        C388   1.261       .  A
C382        O389   1.260       .  A
C382        O383   1.261       .  A
C382        C460   1.495   1_545  S
C384        O386   1.261       .  A
C384        O390   1.263       .  A
C384        C631   1.482       .  S
C388       C1079   1.476       .  S
In391       O393   2.254       .  S
In391       O394   2.252       .  S
In391       O402   2.263       .  S
In391       O396   2.273       .  S
In391       O398   2.257       .  S
In391       O399   2.270       .  S
In391       O400   2.229       .  S
In391       O403   2.252       .  S
C392        O398   1.265       .  A
C392        O400   1.259       .  A
C392        C421   1.480       .  S
O393        C401   1.263       .  A
O394        C401   1.264       .  A
C395        O402   1.259       .  A
C395        O396   1.260       .  A
C395        C491   1.489       .  S
C397        O399   1.262       .  A
C397        O403   1.259       .  A
C397        C684   1.492       .  S
C401       C1065   1.493       .  S
In404       O406   2.232       .  S
In404       O407   2.240       .  S
In404       O415   2.273   1_455  S
In404       O409   2.267       .  S
In404       O411   2.269   1_556  S
In404       O412   2.260   1_455  S
In404       O413   2.239       .  S
In404       O416   2.260   1_455  S
C405        O411   1.265   1_556  A
C405        O413   1.257       .  A
C405        C418   1.481       .  S
O406        C414   1.263       .  A
O407        C414   1.264       .  A
C408        O415   1.259   1_455  A
C408        O409   1.260       .  A
C408        C435   1.494       .  S
C410        O412   1.260       .  A
C410        O416   1.259       .  A
C410        C715   1.491       .  S
C414       C1034   1.481       .  S
C417        C418   1.400   1_554  A
C417        C422   1.403       .  A
C417        H424   1.084       .  S
C418        C419   1.416       .  A
C419        C420   1.406       .  A
C419        N426   1.437       .  S
C420        C421   1.401   1_556  A
C420        H425   1.084       .  S
C421        C422   1.413       .  A
C422        N423   1.432       .  S
N423        H427   1.046       .  S
N423        H428   1.045       .  S
N426        H429   1.042       .  S
N426        H430   1.047       .  S
C431        C432   1.407       .  A
C431        C436   1.410       .  A
C431        H438   1.083       .  S
C432        C433   1.413   1_454  A
C433        C434   1.410       .  A
C433        N440   1.432       .  S
C434        C435   1.407   1_655  A
C434        H439   1.084       .  S
C435        C436   1.414   1_556  A
C436        N437   1.438       .  S
N437        H441   1.046       .  S
N437        H442   1.045   1_455  S
N440        H443   1.046   1_655  S
N440        H444   1.045       .  S
C445        C446   1.404       .  A
C445        C450   1.405   1_554  A
C445        H452   1.083       .  S
C446        C447   1.415       .  A
C447        C448   1.410   1_554  A
C447        N454   1.438       .  S
C448        C449   1.405       .  A
C448        H453   1.084       .  S
C449        C450   1.412       .  A
C450        N451   1.438       .  S
N451        H455   1.045       .  S
N451        H456   1.046       .  S
N454        H457   1.045       .  S
N454        H458   1.046   1_554  S
C459        C460   1.406   1_554  A
C459        C464   1.411       .  A
C459        H466   1.083       .  S
C460        C461   1.416   1_565  A
C461        C462   1.410   1_545  A
C461        N468   1.438       .  S
C462        C463   1.406   1_556  A
C462        H467   1.083       .  S
C463        C464   1.416       .  A
C464        N465   1.438       .  S
N465        H469   1.045       .  S
N465        H470   1.046   1_565  S
N468        H471   1.046       .  S
N468        H472   1.046       .  S
C473        C474   1.404       .  A
C473        C478   1.405       .  A
C473        H480   1.084       .  S
C474        C475   1.413       .  A
C475        C476   1.407       .  A
C475        N482   1.432   1_554  S
C476        C477   1.403       .  A
C476        H481   1.084       .  S
C477        C478   1.411       .  A
C478        N479   1.432       .  S
N479        H483   1.045       .  S
N479        H484   1.046       .  S
N482        H485   1.046       .  S
N482        H486   1.046   1_556  S
C487        C488   1.406   1_554  A
C487        C492   1.408       .  A
C487        H494   1.083       .  S
C488        C489   1.413       .  A
C489        C490   1.409       .  A
C489        N496   1.432       .  S
C490        C491   1.405   1_556  A
C490        H495   1.084       .  S
C491        C492   1.413       .  A
C492        N493   1.438       .  S
N493        H497   1.045       .  S
N493        H498   1.046       .  S
N496        H499   1.046       .  S
N496        H500   1.046       .  S
C501        C502   1.407   1_554  A
C501        C506   1.412       .  A
C501        H508   1.083       .  S
C502        C503   1.414       .  A
C503        C504   1.409       .  A
C503        N510   1.432       .  S
C504        C505   1.405   1_556  A
C504        H509   1.084       .  S
C505        C506   1.416       .  A
C506        N507   1.438       .  S
N507        H511   1.047       .  S
N507        H512   1.044       .  S
N510        H513   1.046       .  S
N510        H514   1.046       .  S
C515        C516   1.403   1_556  A
C515        C520   1.403       .  A
C515        H522   1.084       .  S
C516        C517   1.414       .  A
C517        C518   1.404       .  A
C517        N524   1.432       .  S
C518        C519   1.400   1_554  A
C518        H523   1.084       .  S
C519        C520   1.411       .  A
C520        N521   1.433       .  S
N521        H525   1.046       .  S
N521        H526   1.045       .  S
N524        H527   1.046       .  S
N524        H528   1.046       .  S
C529        C530   1.404       .  A
C529        C534   1.406       .  A
C529        H536   1.084   1_556  S
C530        C531   1.415       .  A
C531        C532   1.408       .  A
C531        N538   1.433       .  S
C532        C533   1.406       .  A
C532        H537   1.084       .  S
C533        C534   1.413       .  A
C534        N535   1.432   1_556  S
N535        H539   1.045       .  S
N535        H540   1.046       .  S
N538        H541   1.046       .  S
N538        H542   1.046       .  S
C543        C544   1.405       .  A
C543        C548   1.404       .  A
C543        H550   1.084       .  S
C544        C545   1.412       .  A
C545        C546   1.405       .  A
C545        N552   1.432       .  S
C546        C547   1.405       .  A
C546        H551   1.084       .  S
C547        C548   1.412       .  A
C548        N549   1.432   1_554  S
N549        H553   1.046       .  S
N549        H554   1.046       .  S
N552        H555   1.045       .  S
N552        H556   1.046       .  S
C557        C558   1.403       .  A
C557        C562   1.406       .  A
C557        H564   1.084       .  S
C558        C559   1.411       .  A
C559        C560   1.405       .  A
C559        N566   1.433   1_554  S
C560        C561   1.405       .  A
C560        H565   1.084       .  S
C561        C562   1.414       .  A
C562        N563   1.432       .  S
N563        H567   1.046       .  S
N563        H568   1.046       .  S
N566        H569   1.046       .  S
N566        H570   1.045   1_556  S
C571        C572   1.406       .  A
C571        C576   1.407       .  A
C571        H578   1.083   1_554  S
C572        C573   1.414       .  A
C573        C574   1.407       .  A
C573        N580   1.432       .  S
C574        C575   1.406       .  A
C574        H579   1.084       .  S
C575        C576   1.413       .  A
C576        N577   1.432   1_554  S
N577        H581   1.045       .  S
N577        H582   1.046       .  S
N580        H583   1.046       .  S
N580        H584   1.046       .  S
C585        C586   1.406       .  A
C585        C590   1.405       .  A
C585        H592   1.084   1_556  S
C586        C587   1.417       .  A
C587        C588   1.410       .  A
C587        N594   1.437       .  S
C588        C589   1.406       .  A
C588        H593   1.083       .  S
C589        C590   1.411       .  A
C590        N591   1.432   1_556  S
N591        H595   1.046       .  S
N591        H596   1.045       .  S
N594        H597   1.044       .  S
N594        H598   1.047       .  S
C599        C600   1.407   1_554  A
C599        C604   1.407       .  A
C599        H606   1.084       .  S
C600        C601   1.418       .  A
C601        C602   1.414       .  A
C601        N608   1.437       .  S
C602        C603   1.406   1_556  A
C602        H607   1.083       .  S
C603        C604   1.411       .  A
C604        N605   1.432       .  S
N605        H609   1.046       .  S
N605        H610   1.046       .  S
N608        H611   1.045       .  S
N608        H612   1.046       .  S
C613        C614   1.405       .  A
C613        C618   1.410       .  A
C613        H620   1.084       .  S
C614        C615   1.412       .  A
C615        C616   1.404   1_556  A
C615        N622   1.438       .  S
C616        C617   1.403       .  A
C616        H621   1.084       .  S
C617        C618   1.415   1_554  A
C618        N619   1.438       .  S
N619        H623   1.046       .  S
N619        H624   1.045       .  S
N622        H625   1.046   1_556  S
N622        H626   1.045       .  S
C627        C628   1.406       .  A
C627        C632   1.404       .  A
C627        H634   1.084       .  S
C628        C629   1.411       .  A
C629        C630   1.403       .  A
C629        N636   1.432   1_556  S
C630        C631   1.404       .  A
C630        H635   1.084   1_556  S
C631        C632   1.412       .  A
C632        N633   1.433       .  S
N633        H637   1.046       .  S
N633        H638   1.045       .  S
N636        H639   1.046       .  S
N636        H640   1.045       .  S
C641        C642   1.407       .  A
C641        C646   1.409       .  A
C641        H648   1.084       .  S
C642        C643   1.413       .  A
C643        C644   1.405       .  A
C643        N650   1.432   1_554  S
C644        C645   1.405       .  A
C644        H649   1.084   1_554  S
C645        C646   1.413       .  A
C646        N647   1.432       .  S
N647        H651   1.046       .  S
N647        H652   1.046       .  S
N650        H653   1.046       .  S
N650        H654   1.045       .  S
C655        C656   1.407       .  A
C655        C660   1.403       .  A
C655        H662   1.084       .  S
C656        C657   1.415   1_556  A
C657        C658   1.412       .  A
C657        N664   1.437       .  S
C658        C659   1.409       .  A
C658        H663   1.083       .  S
C659        C660   1.418   1_554  A
C660        N661   1.432       .  S
N661        H665   1.045   1_545  S
N661        H666   1.045       .  S
N664        H667   1.045       .  S
N664        H668   1.046       .  S
C669        C670   1.404   1_554  A
C669        C674   1.402       .  A
C669        H676   1.084   1_554  S
C670        C671   1.414   1_556  A
C671        C672   1.408       .  A
C671        N678   1.438       .  S
C672        C673   1.405       .  A
C672        H677   1.084       .  S
C673        C674   1.418       .  A
C674        N675   1.433       .  S
N675        H679   1.045       .  S
N675        H680   1.045   1_554  S
N678        H681   1.047   1_554  S
N678        H682   1.045       .  S
C683        C684   1.406       .  A
C683        C688   1.405       .  A
C683        H690   1.084   1_554  S
C684        C685   1.412       .  A
C685        C686   1.409       .  A
C685        N692   1.432       .  S
C686        C687   1.407       .  A
C686        H691   1.084       .  S
C687        C688   1.412       .  A
C688        N689   1.432   1_554  S
N689        H693   1.046       .  S
N689        H694   1.045       .  S
N692        H695   1.045       .  S
N692        H696   1.046       .  S
C697        C698   1.409       .  A
C697        C702   1.409       .  A
C697        H704   1.084       .  S
C698        C699   1.416   1_554  A
C699        C700   1.409       .  A
C699        N706   1.437       .  S
C700        C701   1.405       .  A
C700        H705   1.083       .  S
C701        C702   1.410   1_556  A
C702        N703   1.432       .  S
N703        H707   1.046       .  S
N703        H708   1.045       .  S
N706        H709   1.046       .  S
N706        H710   1.046       .  S
C711        C712   1.406       .  A
C711        C716   1.408       .  A
C711        H718   1.083   1_556  S
C712        C713   1.414       .  A
C713        C714   1.406       .  A
C713        N720   1.432       .  S
C714        C715   1.405       .  A
C714        H719   1.084       .  S
C715        C716   1.413       .  A
C716        N717   1.432   1_556  S
N717        H721   1.045       .  S
N717        H722   1.046       .  S
N720        H723   1.045       .  S
N720        H724   1.046       .  S
C725        C726   1.406       .  A
C725        C730   1.404       .  A
C725        H732   1.084       .  S
C726        C727   1.416   1_556  A
C727        C728   1.413       .  A
C727        N734   1.438       .  S
C728        C729   1.408       .  A
C728        H733   1.083       .  S
C729        C730   1.418   1_554  A
C730        N731   1.432       .  S
N731        H735   1.047       .  S
N731        H736   1.044       .  S
N734        H737   1.049       .  S
N734        H738   1.041       .  S
C739        C740   1.402       .  A
C739        C744   1.402       .  A
C739        H746   1.084       .  S
C740        C741   1.409   1_554  A
C741        C742   1.407       .  A
C741        N748   1.432       .  S
C742        C743   1.406       .  A
C742        H747   1.084       .  S
C743        C744   1.419   1_556  A
C744        N745   1.432       .  S
N745        H749   1.044       .  S
N745        H750   1.046   1_554  S
N748        H751   1.045       .  S
N748        H752   1.046   1_556  S
C753        C754   1.407       .  A
C753        C758   1.412       .  A
C753        H760   1.083       .  S
C754        C755   1.417       .  A
C755        C756   1.400       .  A
C755        N762   1.439       .  S
C756        C757   1.401       .  A
C756        H761   1.084       .  S
C757        C758   1.413       .  A
C758        N759   1.437   1_655  S
N759        H763   1.046       .  S
N759        H764   1.045       .  S
N762        H765   1.045       .  S
N762        H766   1.046       .  S
C767        C768   1.403       .  A
C767        C772   1.400       .  A
C767        H774   1.084       .  S
C768        C769   1.411       .  A
C769        C770   1.412       .  A
C769        N776   1.431       .  S
C770        C771   1.406       .  A
C770        H775   1.083       .  S
C771        C772   1.415       .  A
C772        N773   1.440       .  S
N773        H777   1.046       .  S
N773        H778   1.044       .  S
N776        H779   1.046       .  S
N776        H780   1.045       .  S
C781        C782   1.405       .  A
C781        C786   1.402       .  A
C781        H788   1.084       .  S
C782        C783   1.413       .  A
C783        C784   1.401       .  A
C783        N790   1.433       .  S
C784        C785   1.404       .  A
C784        H789   1.084       .  S
C785        C786   1.416       .  A
C786        N787   1.432       .  S
N787        H791   1.045       .  S
N787        H792   1.046   1_565  S
N790        H793   1.046       .  S
N790        H794   1.046       .  S
C795        C796   1.405       .  A
C795        C800   1.407       .  A
C795        H802   1.083       .  S
C796        C797   1.414       .  A
C797        C798   1.403       .  A
C797        N804   1.438       .  S
C798        C799   1.403       .  A
C798        H803   1.084       .  S
C799        C800   1.414       .  A
C800        N801   1.438       .  S
N801        H805   1.046       .  S
N801        H806   1.044       .  S
N804        H807   1.045       .  S
N804        H808   1.046       .  S
C809        C810   1.404       .  A
C809        C814   1.405       .  A
C809        H816   1.083       .  S
C810        C811   1.412       .  A
C811        C812   1.402       .  A
C811        N818   1.438       .  S
C812        C813   1.405       .  A
C812        H817   1.084       .  S
C813        C814   1.411       .  A
C814        N815   1.437       .  S
N815        H819   1.045   1_565  S
N815        H820   1.045   1_565  S
N818        H821   1.046       .  S
N818        H822   1.046       .  S
C823        C824   1.409       .  A
C823        C828   1.415       .  A
C823        H830   1.083       .  S
C824        C825   1.413       .  A
C825        C826   1.395       .  A
C825        N832   1.433       .  S
C826        C827   1.401       .  A
C826        H831   1.084       .  S
C827        C828   1.411       .  A
C828        N829   1.437       .  S
N829        H833   1.044       .  S
N829        H834   1.047       .  S
N832        H835   1.045       .  S
N832        H836   1.046       .  S
C837        C838   1.404       .  A
C837        C842   1.402       .  A
C837        H844   1.083       .  S
C838        C839   1.414       .  A
C839        C840   1.408       .  A
C839        N846   1.432       .  S
C840        C841   1.402       .  A
C840        H845   1.084       .  S
C841        C842   1.411       .  A
C842        N843   1.439       .  S
N843        H847   1.045       .  S
N843        H848   1.046       .  S
N846        H849   1.046       .  S
N846        H850   1.046       .  S
C851        C852   1.402       .  A
C851        C856   1.397       .  A
C851        H858   1.084       .  S
C852        C853   1.413       .  A
C853        C854   1.406       .  A
C853        N860   1.438       .  S
C854        C855   1.406       .  A
C854        H859   1.083       .  S
C855        C856   1.418       .  A
C856        N857   1.432       .  S
N857        H861   1.044       .  S
N857        H862   1.046       .  S
N860        H863   1.046       .  S
N860        H864   1.046       .  S
C865        C866   1.400       .  A
C865        C870   1.398       .  A
C865        H872   1.084       .  S
C866        C867   1.412       .  A
C867        C868   1.409       .  A
C867        N874   1.437       .  S
C868        C869   1.405       .  A
C868        H873   1.084       .  S
C869        C870   1.413       .  A
C870        N871   1.439       .  S
N871        H875   1.045       .  S
N871        H876   1.046       .  S
N874        H877   1.045       .  S
N874        H878   1.045       .  S
C879        C880   1.408       .  A
C879        C884   1.406       .  A
C879        H886   1.084       .  S
C880        C881   1.415       .  A
C881        C882   1.402       .  A
C881        N888   1.438       .  S
C882        C883   1.402       .  A
C882        H887   1.084       .  S
C883        C884   1.407       .  A
C884        N885   1.432       .  S
N885        H889   1.045       .  S
N885        H890   1.046       .  S
N888        H891   1.045       .  S
N888        H892   1.046       .  S
C893        C894   1.402       .  A
C893        C898   1.406       .  A
C893        H900   1.084       .  S
C894        C895   1.414       .  A
C895        C896   1.404       .  A
C895        N902   1.439       .  S
C896        C897   1.402       .  A
C896        H901   1.084       .  S
C897        C898   1.414       .  A
C898        N899   1.438       .  S
N899        H903   1.046       .  S
N899        H904   1.045       .  S
N902        H905   1.045       .  S
N902        H906   1.046       .  S
C907        C908   1.404       .  A
C907        C912   1.400       .  A
C907        H914   1.084       .  S
C908        C909   1.412       .  A
C909        C910   1.399       .  A
C909        N916   1.433       .  S
C910        C911   1.405       .  A
C910        H915   1.084       .  S
C911        C912   1.417       .  A
C912        N913   1.432       .  S
N913        H917   1.046       .  S
N913        H918   1.045       .  S
N916        H919   1.046       .  S
N916        H920   1.045       .  S
C921        C922   1.401       .  A
C921        C926   1.406       .  A
C921        H928   1.084       .  S
C922        C923   1.412       .  A
C923        C924   1.397       .  A
C923        N930   1.434       .  S
C924        C925   1.406       .  A
C924        H929   1.084       .  S
C925        C926   1.415       .  A
C926        N927   1.437       .  S
N927        H931   1.046       .  S
N927        H932   1.046       .  S
N930        H933   1.046       .  S
N930        H934   1.044       .  S
C935        C936   1.406       .  A
C935        C940   1.407       .  A
C935        H942   1.084       .  S
C936        C937   1.420       .  A
C937        C938   1.397       .  A
C937        N944   1.432       .  S
C938        C939   1.402       .  A
C938        H943   1.084       .  S
C939        C940   1.413       .  A
C940        N941   1.432       .  S
N941        H945   1.046       .  S
N941        H946   1.046       .  S
N944        H947   1.045       .  S
N944        H948   1.045       .  S
C949        C950   1.406       .  A
C949        C954   1.405       .  A
C949        H956   1.084       .  S
C950        C951   1.412       .  A
C951        C952   1.398       .  A
C951        N958   1.433       .  S
C952        C953   1.403       .  A
C952        H957   1.084       .  S
C953        C954   1.417       .  A
C954        N955   1.432       .  S
N955        H959   1.046       .  S
N955        H960   1.044       .  S
N958        H961   1.045       .  S
N958        H962   1.046       .  S
C963        C964   1.404       .  A
C963        C968   1.408       .  A
C963        H970   1.084       .  S
C964        C965   1.413       .  A
C965        C966   1.394       .  A
C965        N972   1.433       .  S
C966        C967   1.405       .  A
C966        H971   1.084       .  S
C967        C968   1.414       .  A
C968        N969   1.437       .  S
N969        H973   1.046       .  S
N969        H974   1.046       .  S
N972        H975   1.046       .  S
N972        H976   1.044       .  S
C977        C978   1.403       .  A
C977        C982   1.396       .  A
C977        H984   1.084       .  S
C978        C979   1.412       .  A
C979        C980   1.405       .  A
C979        N986   1.432       .  S
C980        C981   1.404       .  A
C980        H985   1.084       .  S
C981        C982   1.418       .  A
C982        N983   1.433       .  S
N983        H987   1.044       .  S
N983        H988   1.046       .  S
N986        H989   1.045       .  S
N986        H990   1.046       .  S
C991        C992   1.401       .  A
C991        C996   1.402       .  A
C991        H998   1.084       .  S
C992        C993   1.412       .  A
C993        C994   1.405       .  A
C993       N1000   1.432       .  S
C994        C995   1.403       .  A
C994        H999   1.084       .  S
C995        C996   1.415       .  A
C996        N997   1.433       .  S
N997       H1001   1.046       .  S
N997       H1002   1.046       .  S
N1000      H1003   1.045       .  S
N1000      H1004   1.046       .  S
C1005      C1006   1.405       .  A
C1005      C1010   1.403       .  A
C1005      H1012   1.084       .  S
C1006      C1007   1.410       .  A
C1007      C1008   1.403       .  A
C1007      N1014   1.432       .  S
C1008      C1009   1.404       .  A
C1008      H1013   1.084       .  S
C1009      C1010   1.413       .  A
C1010      N1011   1.439       .  S
N1011      H1015   1.045       .  S
N1011      H1016   1.046       .  S
N1014      H1017   1.046       .  S
N1014      H1018   1.046       .  S
C1019      C1020   1.401       .  A
C1019      C1024   1.398       .  A
C1019      H1026   1.084       .  S
C1020      C1021   1.413       .  A
C1021      C1022   1.403       .  A
C1021      N1028   1.432       .  S
C1022      C1023   1.404       .  A
C1022      H1027   1.084       .  S
C1023      C1024   1.412       .  A
C1024      N1025   1.433       .  S
N1025      H1029   1.045       .  S
N1025      H1030   1.046       .  S
N1028      H1031   1.046       .  S
N1028      H1032   1.046       .  S
C1033      C1034   1.405       .  A
C1033      C1038   1.404       .  A
C1033      H1040   1.084       .  S
C1034      C1035   1.412       .  A
C1035      C1036   1.400       .  A
C1035      N1042   1.433       .  S
C1036      C1037   1.404       .  A
C1036      H1041   1.084       .  S
C1037      C1038   1.410       .  A
C1038      N1039   1.432       .  S
N1039      H1043   1.046       .  S
N1039      H1044   1.046       .  S
N1042      H1045   1.045       .  S
N1042      H1046   1.046       .  S
C1047      C1048   1.406       .  A
C1047      C1052   1.409       .  A
C1047      H1054   1.084       .  S
C1048      C1049   1.412       .  A
C1049      C1050   1.407       .  A
C1049      N1056   1.437       .  S
C1050      C1051   1.405       .  A
C1050      H1055   1.084       .  S
C1051      C1052   1.410       .  A
C1052      N1053   1.437       .  S
N1053      H1057   1.046       .  S
N1053      H1058   1.045       .  S
N1056      H1059   1.047       .  S
N1056      H1060   1.045       .  S
C1061      C1062   1.406       .  A
C1061      C1066   1.404       .  A
C1061      H1068   1.083       .  S
C1062      C1063   1.413       .  A
C1063      C1064   1.407       .  A
C1063      N1070   1.433       .  S
C1064      C1065   1.407       .  A
C1064      H1069   1.084       .  S
C1065      C1066   1.418       .  A
C1066      N1067   1.432       .  S
N1067      H1071   1.047       .  S
N1067      H1072   1.044       .  S
N1070      H1073   1.046       .  S
N1070      H1074   1.045       .  S
C1075      C1076   1.407       .  A
C1075      C1080   1.407       .  A
C1075      H1082   1.083       .  S
C1076      C1077   1.411       .  A
C1077      C1078   1.399       .  A
C1077      N1084   1.433       .  S
C1078      C1079   1.402       .  A
C1078      H1083   1.084       .  S
C1079      C1080   1.411       .  A
C1080      N1081   1.438       .  S
N1081      H1085   1.046       .  S
N1081      H1086   1.045       .  S
N1084      H1087   1.045       .  S
N1084      H1088   1.046       .  S
C1089      C1090   1.403       .  A
C1089      C1094   1.401       .  A
C1089      H1096   1.084       .  S
C1090      C1091   1.413       .  A
C1091      C1092   1.404       .  A
C1091      N1098   1.432       .  S
C1092      C1093   1.403       .  A
C1092      H1097   1.084       .  S
C1093      C1094   1.413       .  A
C1094      N1095   1.433       .  S
N1095      H1099   1.046       .  S
N1095      H1100   1.046       .  S
N1098      H1101   1.045       .  S
N1098      H1102   1.046       .  S
C1103      C1104   1.406       .  A
C1103      C1108   1.409       .  A
C1103      H1110   1.084       .  S
C1104      C1105   1.415       .  A
C1105      C1106   1.398       .  A
C1105      N1112   1.433       .  S
C1106      C1107   1.406       .  A
C1106      H1111   1.084       .  S
C1107      C1108   1.413       .  A
C1108      N1109   1.438       .  S
N1109      H1113   1.044       .  S
N1109      H1114   1.047       .  S
N1112      H1115   1.045       .  S
N1112      H1116   1.046       .  S
C1117      C1118   1.403       .  A
C1117      C1122   1.399       .  A
C1117      H1124   1.084       .  S
C1118      C1119   1.414       .  A
C1119      C1120   1.402       .  A
C1119      N1126   1.433       .  S
C1120      C1121   1.402       .  A
C1120      H1125   1.084       .  S
C1121      C1122   1.417       .  A
C1122      N1123   1.432       .  S
N1123      H1127   1.045       .  S
N1123      H1128   1.044       .  S
N1126      H1129   1.046       .  S
N1126      H1130   1.045       .  S
C1131      C1132   1.404       .  A
C1131      C1136   1.400       .  A
C1131      H1138   1.084       .  S
C1132      C1133   1.413       .  A
C1133      C1134   1.410       .  A
C1133      N1140   1.437       .  S
C1134      C1135   1.406       .  A
C1134      H1139   1.083       .  S
C1135      C1136   1.413       .  A
C1136      N1137   1.433       .  S
N1137      H1141   1.046       .  S
N1137      H1142   1.046       .  S
N1140      H1143   1.045       .  S
N1140      H1144   1.046       .  S
C1145      C1146   1.404       .  A
C1145      C1150   1.401       .  A
C1145      H1152   1.084       .  S
C1146      C1147   1.413       .  A
C1147      C1148   1.405       .  A
C1147      N1154   1.432       .  S
C1148      C1149   1.404       .  A
C1148      H1153   1.084       .  S
C1149      C1150   1.413       .  A
C1150      N1151   1.433       .  S
N1151      H1155   1.045       .  S
N1151      H1156   1.046       .  S
N1154      H1157   1.046       .  S
N1154      H1158   1.046       .  S
C1159      C1160   1.406       .  A
C1159      C1164   1.406       .  A
C1159      H1166   1.084       .  S
C1160      C1161   1.410       .  A
C1161      C1162   1.400       .  A
C1161      N1168   1.433       .  S
C1162      C1163   1.404       .  A
C1162      H1167   1.084       .  S
C1163      C1164   1.412       .  A
C1164      N1165   1.432       .  S
N1165      H1169   1.045       .  S
N1165      H1170   1.046       .  S
N1168      H1171   1.046       .  S
N1168      H1172   1.045       .  S
C1173      C1174   1.403       .  A
C1173      C1178   1.395       .  A
C1173      H1180   1.084       .  S
C1174      C1175   1.408       .  A
C1175      C1176   1.404       .  A
C1175      N1182   1.432       .  S
C1176      C1177   1.406       .  A
C1176      H1181   1.084       .  S
C1177      C1178   1.416       .  A
C1178      N1179   1.433       .  S
N1179      H1183   1.045       .  S
N1179      H1184   1.045       .  S
N1182      H1185   1.046       .  S
N1182      H1186   1.046       .  S
C1187      C1188   1.405       .  A
C1187      C1192   1.405       .  A
C1187      H1194   1.084       .  S
C1188      C1189   1.407       .  A
C1189      C1190   1.404       .  A
C1189      N1196   1.432       .  S
C1190      C1191   1.405       .  A
C1190      H1195   1.084       .  S
C1191      C1192   1.410       .  A
C1192      N1193   1.438       .  S
N1193      H1197   1.046       .  S
N1193      H1198   1.045       .  S
N1196      H1199   1.046       .  S
N1196      H1200   1.045       .  S
C1201      C1202   1.406       .  A
C1201      C1206   1.409       .  A
C1201      H1208   1.083       .  S
C1202      C1203   1.411       .  A
C1203      C1204   1.399       .  A
C1203      N1210   1.433       .  S
C1204      C1205   1.404       .  A
C1204      H1209   1.084       .  S
C1205      C1206   1.413       .  A
C1206      N1207   1.437       .  S
N1207      H1211   1.046       .  S
N1207      H1212   1.045       .  S
N1210      H1213   1.046       .  S
N1210      H1214   1.046       .  S
C1215      C1216   1.402       .  A
C1215      C1220   1.398       .  A
C1215      H1222   1.084       .  S
C1216      C1217   1.411       .  A
C1217      C1218   1.403       .  A
C1217      N1224   1.432       .  S
C1218      C1219   1.404       .  A
C1218      H1223   1.084       .  S
C1219      C1220   1.412       .  A
C1220      N1221   1.433       .  S
N1221      H1225   1.046       .  S
N1221      H1226   1.046       .  S
N1224      H1227   1.046       .  S
N1224      H1228   1.045       .  S
C1229      C1230   1.403       .  A
C1229      C1234   1.399       .  A
C1229      H1236   1.084       .  S
C1230      C1231   1.414       .  A
C1231      C1232   1.409       .  A
C1231      N1238   1.437       .  S
C1232      C1233   1.406       .  A
C1232      H1237   1.083       .  S
C1233      C1234   1.412       .  A
C1234      N1235   1.433       .  S
N1235      H1239   1.046       .  S
N1235      H1240   1.046       .  S
N1238      H1241   1.046       .  S
N1238      H1242   1.046       .  S
C1243      C1244   1.406       .  A
C1243      C1248   1.406       .  A
C1243      H1250   1.084       .  S
C1244      C1245   1.411       .  A
C1245      C1246   1.400       .  A
C1245      N1252   1.433       .  S
C1246      C1247   1.403       .  A
C1246      H1251   1.084       .  S
C1247      C1248   1.410       .  A
C1248      N1249   1.432       .  S
N1249      H1253   1.046       .  S
N1249      H1254   1.045       .  S
N1252      H1255   1.046       .  S
N1252      H1256   1.046       .  S
C1257      C1258   1.401       .  A
C1257      C1262   1.398       .  A
C1257      H1264   1.084       .  S
C1258      C1259   1.410       .  A
C1259      C1260   1.400       .  A
C1259      N1266   1.433       .  S
C1260      C1261   1.403       .  A
C1260      H1265   1.084       .  S
C1261      C1262   1.410       .  A
C1262      N1263   1.432       .  S
N1263      H1267   1.045       .  S
N1263      H1268   1.046       .  S
N1266      H1269   1.046       .  S
N1266      H1270   1.046       .  S
C1271      C1272   1.405       .  A
C1271      C1276   1.405       .  A
C1271      H1278   1.084       .  S
C1272      C1273   1.410       .  A
C1273      C1274   1.404       .  A
C1273      N1280   1.432       .  S
C1274      C1275   1.404       .  A
C1274      H1279   1.084       .  S
C1275      C1276   1.410       .  A
C1276      N1277   1.438       .  S
N1277      H1281   1.047       .  S
N1277      H1282   1.044       .  S
N1280      H1283   1.046       .  S
N1280      H1284   1.045       .  S
C1285      C1286   1.404       .  A
C1285      C1290   1.401       .  A
C1285      H1292   1.084       .  S
C1286      C1287   1.414       .  A
C1287      C1288   1.409       .  A
C1287      N1294   1.438       .  S
C1288      C1289   1.405       .  A
C1288      H1293   1.083       .  S
C1289      C1290   1.411       .  A
C1290      N1291   1.433       .  S
N1291      H1295   1.045       .  S
N1291      H1296   1.046       .  S
N1294      H1297   1.046       .  S
N1294      H1298   1.046       .  S
C1299      C1300   1.403       .  A
C1299      C1304   1.402       .  A
C1299      H1306   1.084       .  S
C1300      C1301   1.412       .  A
C1301      C1302   1.405       .  A
C1301      N1308   1.432       .  S
C1302      C1303   1.405       .  A
C1302      H1307   1.084       .  S
C1303      C1304   1.413       .  A
C1304      N1305   1.433       .  S
N1305      H1309   1.045       .  S
N1305      H1310   1.046       .  S
N1308      H1311   1.046       .  S
N1308      H1312   1.045       .  S
