geometry optimzed in LAMMPS
_audit_creation_date              2020-11-30 
_audit_creation_method            'lammps2cif' 
_symmetry_space_group_name_H-M    'P1' 
_symmetry_Int_Tables_number       1 
_symmetry_cell_setting            triclinic 
loop_ 
_symmetry_equiv_pos_as_xyz 
  x,y,z 
_cell_length_a                    30.00401923 
_cell_length_b                    37.10805317275918 
_cell_length_c                    37.09848041268719 
_cell_angle_alpha                 94.82200351179101 
_cell_angle_beta                  89.78529915530572 
_cell_angle_gamma                 115.39715488848442 
loop_ 
_atom_site_label 
_atom_site_type_symbol 
_atom_site_fract_x 
_atom_site_fract_y 
_atom_site_fract_z 
_atom_site_charge 
O1          O  0.42755854  0.15413488  0.88909481    -0.82400
O2          O  0.32298567  0.23872646  0.80146211    -0.67100
O3          O  0.35782717  0.17995794  0.86632502    -1.13700
C4          C  0.28043577  0.06910409  0.78038158     1.04500
O5          O  0.25174786  0.18896030  0.78054711    -0.80300
O6          O  0.22648114  0.13062882  0.82616715    -0.67800
Ni7        Ni  0.42385311  0.20414031  0.88743530     1.34900
C8          C  0.23418794  0.11147749  0.85036022     0.83300
O9          O  0.36015279  0.25629423  0.86828579    -0.80800
O10         O  0.42938884  0.25785481  0.89122075    -0.91100
C11         C  0.28109673  0.22583509  0.78535836     0.82800
O12         O  0.45480632  0.21191577  0.84182110    -0.69300
O13         O  0.25219938  0.08581937  0.77515504    -0.88600
C14         C  0.44804790  0.23151020  0.81753201     0.83700
C15         C  0.40129645  0.27457806  0.88568417     1.05200
H16         H  0.34555059  0.16924076  0.78059959     0.37000
O17         O  0.32320940  0.16352285  0.80038597    -1.11200
O18         O  0.27484992  0.10853793  0.85345886    -0.67900
Ni19       Ni  0.33957189  0.13317078  0.83249057     1.26300
O20         O  0.40735035  0.23440596  0.81358586    -0.68100
O21         O  0.32149803  0.08732618  0.79795783    -0.80400
C22         C  0.39850670  0.11732414  0.88275162     0.83000
O23         O  0.35826045  0.10476968  0.86462904    -0.67600
Ni24       Ni  0.25666982  0.13928570  0.78032997     1.27400
Ni25       Ni  0.34193458  0.21040513  0.83397334     1.26100
H26         H  0.33502287  0.17412709  0.88582481     0.37600
C27         C  0.19667414  0.39629464  0.73854955     0.85000
C28         C  0.22573306  0.37323954  0.74969608    -0.55200
C29         C  0.20289369  0.33297152  0.74061969     0.07900
C30         C  0.15323467  0.31923558  0.71982761     0.18900
C31         C  0.18773806  0.38530772  0.69757525    -0.56000
C32         C  0.16487604  0.34502298  0.68716912     0.08000
C33         C  0.14533132  0.37459195  0.75462255    -0.55500
C34         C  0.12282694  0.33413720  0.74514750     0.08600
H35         H  0.26189864  0.38687241  0.76276771     0.13100
H36         H  0.13421448  0.28652124  0.71290771    -0.01100
H37         H  0.19922234  0.40831251  0.67896881     0.13400
H38         H  0.12938162  0.38965642  0.77320968     0.13200
C39         C  0.48395210  0.44702839  0.92662332     0.85000
C40         C  0.03534925  0.46891143  0.91163881    -0.55200
C41         C  0.05800890  0.00995266  0.92148766     0.07900
C42         C  0.02583796  0.02416950  0.94567055     0.18900
C43         C  0.49090686  0.45788389  0.96773677    -0.56000
C44         C  0.01285568  0.99839688  0.97821335     0.08000
C45         C  0.45472946  0.46954985  0.91453307    -0.55500
C46         C  0.47661288  0.00974999  0.92407862     0.08600
H47         H  0.05221956  0.45396136  0.89379229     0.13100
H48         H  0.04383505  0.05685794  0.95267381    -0.01100
H49         H  0.47841322  0.43494021  0.98642533     0.13400
H50         H  0.41847944  0.45552140  0.90152466     0.13200
O51         O  0.13099039  0.02903128  0.45749214    -0.82400
O52         O  0.42049703  0.43322968  0.52511875    -0.67100
O53         O  0.02943614  0.49764359  0.46962062    -1.13700
C54         C  0.04394235  0.10701255  0.54931904     1.04500
O55         O  0.39750608  0.48058902  0.54594282    -0.80300
O56         O  0.43543461  0.03530657  0.49547613    -0.67800
Ni57       Ni  0.07688568  0.47702066  0.45732193     1.34900
C58         C  0.46686197  0.05843957  0.47487026     0.83300
O59         O  0.45496475  0.41873167  0.46200014    -0.80800
O60         O  0.02968100  0.42181497  0.45261050    -0.91100
C61         C  0.39053066  0.44430455  0.54144538     0.82800
O62         O  0.09066027  0.47332077  0.50670619    -0.69300
O63         O  0.99738024  0.08768890  0.54826997    -0.88600
C64         C  0.05853572  0.45000401  0.52675301     0.83700
C65         C  0.48305581  0.40258083  0.45115846     1.05200
H66         H  0.01127435  0.00694765  0.55336531     0.37000
O67         O  0.99795038  0.01169163  0.53152994    -1.11200
O68         O  0.01247062  0.06544756  0.47675823    -0.67900
Ni69       Ni  0.05136737  0.04479733  0.50343698     1.26300
O70         O  0.01300589  0.44304891  0.52413110    -0.68100
O71         O  0.07198208  0.09088848  0.53837157    -0.80400
C72         C  0.13701323  0.06514279  0.46050477     0.83000
O73         O  0.10582292  0.07602346  0.47510645    -0.67600
Ni74       Ni  0.45078834  0.03248692  0.54470928     1.27400
Ni75       Ni  0.47548363  0.46458221  0.49725882     1.26100
H76         H  0.01656823  0.50232259  0.44754389     0.37600
C77         C  0.40390170  0.23128425  0.40536337     0.85000
C78         C  0.35206251  0.21053466  0.42024380    -0.55200
C79         C  0.32767760  0.17056526  0.40984841     0.07900
C80         C  0.35835258  0.15479555  0.38524791     0.18900
C81         C  0.43096768  0.20664002  0.41746533    -0.56000
C82         C  0.40674046  0.16641820  0.40718820     0.08000
C83         C  0.39662228  0.22140021  0.36431580    -0.55500
C84         C  0.37298022  0.18141055  0.35316117     0.08600
H85         H  0.33598539  0.22679615  0.43721233     0.13100
H86         H  0.33968010  0.12227066  0.37748485    -0.01100
H87         H  0.46432762  0.21869210  0.43441680     0.13400
H88         H  0.40974890  0.24494048  0.34623608     0.13200
C89         C  0.12341863  0.27785582  0.59636131     0.85000
C90         C  0.13027607  0.28825160  0.63749793    -0.55200
C91         C  0.15382806  0.32838878  0.64818168     0.07900
C92         C  0.16848897  0.35442147  0.61573057     0.18900
C93         C  0.09656675  0.30219736  0.58335413    -0.56000
C94         C  0.12027539  0.34247726  0.59340913     0.08000
C95         C  0.17544001  0.29850137  0.58172824    -0.55500
C96         C  0.19971864  0.33854444  0.59181197     0.08600
H97         H  0.11730226  0.26514769  0.65606200     0.13100
H98         H  0.18678473  0.38685688  0.62331478    -0.01100
H99         H  0.06368301  0.28973250  0.56588732     0.13400
H100        H  0.19161585  0.28203963  0.56518019     0.13200
O101        O  0.28296808  0.32458518  0.20965480    -0.82400
O102        O  0.17146511  0.40732287  0.13245700    -0.67100
O103        O  0.20991060  0.35163496  0.19807494    -1.13700
C104        C  0.12754325  0.23710289  0.11571484     1.04500
O105        O  0.09908734  0.35753202  0.11398297    -0.80300
O106        O  0.07227147  0.29602494  0.15688459    -0.67800
Ni107      Ni  0.27694130  0.37425063  0.21621299     1.34900
C108        C  0.08125995  0.28101945  0.18400371     0.83300
O109        O  0.21360722  0.42805516  0.19785845    -0.80800
O110        O  0.27892284  0.42671004  0.22568691    -0.91100
C111        C  0.12896639  0.39440072  0.11749952     0.82800
O112        O  0.30799398  0.38806471  0.17129177    -0.69300
O113        O  0.10277378  0.25527165  0.10586072    -0.88600
C114        C  0.29763911  0.40402931  0.14564897     0.83700
C115        C  0.25255439  0.44456831  0.21818993     1.05200
H116        H  0.19387707  0.33583655  0.11406364     0.37000
O117        O  0.17134129  0.33161855  0.13373316    -1.11200
O118        O  0.12351665  0.28185234  0.19049686    -0.67900
Ni119      Ni  0.18728605  0.30243497  0.16794369     1.26300
O120        O  0.25532175  0.40379968  0.14151334    -0.68100
O121        O  0.16521492  0.25363226  0.13712829    -0.80400
C122        C  0.25171236  0.28884210  0.21293684     0.83000
O123        O  0.20687392  0.27655998  0.20284171    -0.67600
Ni124      Ni  0.10550149  0.30804286  0.11241006     1.27400
Ni125      Ni  0.19234927  0.38052828  0.16517528     1.26100
H126        H  0.18914032  0.34801351  0.21866597     0.37600
C127        C  0.04712555  0.06620311  0.06871956     0.85000
C128        C  0.07620409  0.04380977  0.08155367    -0.55200
C129        C  0.05422648  0.50343480  0.07189518     0.07900
C130        C  0.50586092  0.48925017  0.04952992     0.18900
C131        C  0.04178388  0.05550472  0.02750117    -0.56000
C132        C  0.02020267  0.01522727  0.01702061     0.08000
C133        C  0.49453754  0.04392083  0.08256333    -0.55500
C134        C  0.47303674  0.50362736  0.07288875     0.08600
H135        H  0.11195032  0.05853761  0.09558520     0.13100
H136        H  0.48778523  0.45657104  0.04249615    -0.01100
H137        H  0.05540520  0.07832695  0.00875010     0.13400
H138        H  0.47708008  0.05875083  0.09997326     0.13200
C139        C  0.33329553  0.11626486  0.26137141     0.85000
C140        C  0.38532489  0.13845722  0.24653459    -0.55200
C141        C  0.40759462  0.17852421  0.25726153     0.07900
C142        C  0.37606313  0.19267128  0.28218290     0.18900
C143        C  0.34039890  0.12583679  0.30256462    -0.56000
C144        C  0.36287013  0.16577938  0.31397418     0.08000
C145        C  0.30510198  0.13988145  0.24947692    -0.55500
C146        C  0.32705355  0.17988737  0.26059596     0.08600
H147        H  0.40193994  0.12410860  0.22776320     0.13100
H148        H  0.39496080  0.22503054  0.29035915    -0.01100
H149        H  0.32827439  0.10225361  0.32063428     0.13400
H150        H  0.27231108  0.12712740  0.23202323     0.13200
C151        C  0.37719762  0.41483733  0.11615077    -0.14800
C152        C  0.33812567  0.42590109  0.12133177     0.07300
C153        C  0.34205217  0.46135187  0.10763523    -0.14800
C154        C  0.38527944  0.48623030  0.09102953    -0.14800
C155        C  0.42502983  0.47576431  0.08712336     0.07300
C156        C  0.41986905  0.43924399  0.09898915    -0.14800
H157        H  0.37545949  0.38786998  0.12655381     0.11300
H158        H  0.31289690  0.47098567  0.11159707     0.11300
H159        H  0.38805544  0.51405761  0.08190132     0.11300
H160        H  0.44991575  0.43046628  0.09678175     0.11300
C161        C  0.05757813  0.13697627  0.06141064    -0.14800
C162        C  0.06994135  0.11110201  0.08048072     0.07300
C163        C  0.10063944  0.12740102  0.11201945    -0.14800
C164        C  0.12089734  0.16848434  0.12260891    -0.14800
C165        C  0.10983394  0.19427300  0.10266637     0.07300
C166        C  0.07757214  0.17800125  0.07215276    -0.14800
H167        H  0.53330016  0.12580504  0.03744663     0.11300
H168        H  0.10826219  0.10857881  0.12934239     0.11300
H169        H  0.14386573  0.17985654  0.14717155     0.11300
H170        H  0.06726848  0.19696266  0.05674457     0.11300
C171        C  0.12259801  0.45914393  0.12579088    -0.14800
C172        C  0.11252272  0.42324108  0.10468056     0.07300
C173        C  0.08472536  0.41428430  0.07211292    -0.14800
C174        C  0.06697390  0.44085991  0.06088295    -0.14800
C175        C  0.07565158  0.47632823  0.08254077     0.07300
C176        C  0.10387541  0.48523929  0.11504889    -0.14800
H177        H  0.14346047  0.46630481  0.15124880     0.11300
H178        H  0.07697569  0.38680487  0.05530027     0.11300
H179        H  0.04657171  0.43354237  0.03525608     0.11300
H180        H  0.11071443  0.01155427  0.13274544     0.11300
C181        C  0.31978861  0.27490745  0.23687803    -0.14800
C182        C  0.26956956  0.26107596  0.22710689     0.07300
C183        C  0.23757930  0.22084866  0.23059662    -0.14800
C184        C  0.25587876  0.19476306  0.24242187    -0.14800
C185        C  0.30664850  0.20825030  0.25077087     0.07300
C186        C  0.33800329  0.24896222  0.24864211    -0.14800
H187        H  0.34550021  0.30585659  0.23491359     0.11300
H188        H  0.19853792  0.20941565  0.22384520     0.11300
H189        H  0.23004051  0.16402465  0.24494318     0.11300
H190        H  0.37705469  0.26113404  0.25501919     0.11300
C191        C  0.26138866  0.04970805  0.23526509    -0.14800
C192        C  0.30965026  0.07103808  0.25075550     0.07300
C193        C  0.33631563  0.04910283  0.25819685    -0.14800
C194        C  0.31674089  0.00784409  0.24890283    -0.14800
C195        C  0.27025364  0.48726072  0.23217163     0.07300
C196        C  0.24188734  0.00837251  0.22578473    -0.14800
H197        H  0.23777497  0.06407729  0.23045669     0.11300
H198        H  0.37291933  0.06416493  0.27088941     0.11300
H199        H  0.34021647  0.49273692  0.25383652     0.11300
H200        H  0.20524672  0.99321801  0.21316510     0.11300
C201        C  0.04175981  0.23165489  0.23053865    -0.14800
C202        C  0.03927336  0.25895657  0.20725262     0.07300
C203        C  0.99371776  0.26062395  0.20238437    -0.14800
C204        C  0.45166358  0.23503645  0.21952580    -0.14800
C205        C  0.45367617  0.20680086  0.24148024     0.07300
C206        C  0.49902283  0.20518064  0.24700795    -0.14800
H207        H  0.07598197  0.22909676  0.23455442     0.11300
H208        H  0.99003470  0.28076948  0.18437829     0.11300
H209        H  0.41688928  0.23600352  0.21396233     0.11300
H210        H  0.50135257  0.18351432  0.26381611     0.11300
C211        C  0.25906092  0.15573786  0.45441166    -0.14800
C212        C  0.27706794  0.14508246  0.42193786     0.07300
C213        C  0.24645969  0.10944940  0.40129684    -0.14800
C214        C  0.20028976  0.08436092  0.41348908    -0.14800
C215        C  0.18292757  0.09467312  0.44615006     0.07300
C216        C  0.21219540  0.13099664  0.46614876    -0.13900
H217        H  0.28158903  0.18251037  0.47154201     0.11300
H218        H  0.25792966  0.10065147  0.37569147     0.11300
H219        H  0.17813416  0.05650159  0.39747355     0.11300
H220        H  0.19987641  0.13926222  0.49167670     0.11300
C221        C  0.49102126  0.33830249  0.44454447    -0.14800
C222        C  0.46276483  0.35941289  0.43859827     0.07300
C223        C  0.41677090  0.33904817  0.42037695    -0.14800
C224        C  0.39937392  0.29826600  0.40863487    -0.14800
C225        C  0.42661878  0.27648306  0.41601727     0.07300
C226        C  0.47325846  0.29747609  0.43357551    -0.14800
H227        H  0.02673174  0.35325604  0.45867784     0.11300
H228        H  0.39461612  0.35469713  0.41487806     0.11300
H229        H  0.36378291  0.28329337  0.39441828     0.11300
H230        H  0.49664288  0.28303988  0.43900603     0.11300
C231        C  0.48630675  0.11627430  0.43702179    -0.14800
C232        C  0.45101329  0.08184276  0.45137170     0.07300
C233        C  0.40091615  0.07407922  0.44816721    -0.14800
C234        C  0.38670184  0.10078099  0.43250078    -0.14800
C235        C  0.42216374  0.13620751  0.41998425     0.07300
C236        C  0.47207380  0.14328996  0.42176180    -0.14800
H237        H  0.52525787  0.12351560  0.43931118     0.11300
H238        H  0.37272940  0.04820174  0.45922683     0.11300
H239        H  0.34801756  0.09466243  0.43193908     0.11300
H240        H  0.50018943  0.17016673  0.41204739     0.11300
C241        C  0.27954773  0.40112495  0.59939659    -0.14800
C242        C  0.25073719  0.36396241  0.58021662     0.07300
C243        C  0.27096562  0.35186223  0.54961209    -0.14800
C244        C  0.31780153  0.37682461  0.53799824    -0.14800
C245        C  0.34482602  0.41478788  0.55612072     0.07300
C246        C  0.32556941  0.42635670  0.58723322    -0.14800
H247        H  0.26692150  0.41119046  0.62383275     0.11300
H248        H  0.25027826  0.32378785  0.53361807     0.11300
H249        H  0.33173079  0.36731761  0.51383277     0.11300
H250        H  0.34606495  0.45534623  0.60206984     0.11300
C251        C  0.03497066  0.17082832  0.55833184    -0.14800
C252        C  0.06419638  0.15005733  0.56214861     0.07300
C253        C  0.11112092  0.17052350  0.57893716    -0.14800
C254        C  0.12854369  0.21108155  0.59136620    -0.14800
C255        C  0.10051696  0.23267074  0.58576604     0.07300
C256        C  0.05282083  0.21151939  0.56983528    -0.14800
H257        H  0.99822347  0.15565554  0.54585910     0.11300
H258        H  0.13399572  0.15508665  0.58287320     0.11300
H259        H  0.16482654  0.22605225  0.60455690     0.11300
H260        H  0.02858586  0.22569062  0.56632004     0.11300
C261        C  0.12359066  0.43713209  0.55819946    -0.14800
C262        C  0.07344533  0.42625679  0.55034160     0.07300
C263        C  0.03833173  0.38887931  0.55980084    -0.14800
C264        C  0.05324978  0.36216686  0.57479243    -0.14800
C265        C  0.10363858  0.37226481  0.58096643     0.07300
C266        C  0.13847664  0.41054943  0.57336078    -0.14800
H267        H  0.15160535  0.46552284  0.55103315     0.11300
H268        H  0.99940746  0.37926507  0.55371357     0.11300
H269        H  0.02531592  0.33322082  0.58077188     0.11300
H270        H  0.17761641  0.41935934  0.57715146     0.11300
C271        C  0.46145660  0.33699631  0.92145515    -0.14800
C272        C  0.41933442  0.31760638  0.89823813     0.07300
C273        C  0.39782140  0.34054987  0.88427898    -0.14800
C274        C  0.41826545  0.38196187  0.89271004    -0.14800
C275        C  0.46050925  0.40175752  0.91613290     0.07300
C276        C  0.48179850  0.37845072  0.93013758    -0.14800
H277        H  0.47928407  0.32021283  0.93251158     0.11300
H278        H  0.36610130  0.32670138  0.86567394     0.11300
H279        H  0.40097678  0.39763893  0.87950288     0.11300
H280        H  0.01691757  0.39321908  0.94514007     0.11300
C281        C  0.11070651  0.07487918  0.89569760    -0.14800
C282        C  0.10569011  0.03812494  0.90704426     0.07300
C283        C  0.14559909  0.02796288  0.90302070    -0.14800
C284        C  0.18885170  0.05330963  0.88687774    -0.14800
C285        C  0.19275225  0.08898337  0.87367270     0.07300
C286        C  0.15351194  0.09981926  0.87890408    -0.14800
H287        H  0.08054849  0.08350338  0.89816027     0.11300
H288        H  0.14302638  0.00007496  0.91184902     0.11300
H289        H  0.21822147  0.04391002  0.88300710     0.11300
H290        H  0.15529426  0.12702159  0.86898442     0.11300
C291        C  0.44330841  0.09732242  0.92736371    -0.14800
C292        C  0.41397946  0.08812162  0.89553137     0.07300
C293        C  0.40343151  0.05241649  0.87404737    -0.14800
C294        C  0.42385377  0.02704827  0.88331927    -0.14800
C295        C  0.45403199  0.03638734  0.91486525     0.07300
C296        C  0.46276312  0.07138985  0.93719190    -0.14800
H297        H  0.45151317  0.12473575  0.94441498     0.11300
H298        H  0.38147303  0.04513494  0.84910765     0.11300
H299        H  0.41700101  0.50065107  0.86509514     0.11300
H300        H  0.48462261  0.07889758  0.96216351     0.11300
C301        C  0.27550393  0.29086637  0.79285191    -0.14800
C302        C  0.26394069  0.25425475  0.77266688     0.07300
C303        C  0.23207483  0.24329920  0.74197002    -0.14800
C304        C  0.21254991  0.26891564  0.73129130    -0.14800
C305        C  0.22375677  0.30559037  0.75158659     0.07300
C306        C  0.25498934  0.31598925  0.78278555    -0.14800
H307        H  0.29883321  0.29932140  0.81719192     0.11300
H308        H  0.22241868  0.21491289  0.72614567     0.11300
H309        H  0.18921034  0.26004501  0.70697032     0.11300
H310        H  0.26300098  0.34318088  0.80002849     0.11300
C311        C  0.07499642  0.27239719  0.77669163    -0.14800
C312        C  0.07660463  0.30629238  0.76134279     0.07300
C313        C  0.03444510  0.31361715  0.76230180    -0.14800
C314        C  0.49162776  0.28772772  0.77835808    -0.14800
C315        C  0.49052226  0.25468703  0.79514909     0.07300
C316        C  0.53281480  0.24730810  0.79394777    -0.14800
H317        H  0.10717598  0.26623321  0.77655150     0.11300
H318        H  0.03470139  0.33942421  0.75050853     0.11300
H319        H  0.46004673  0.29465969  0.77915398     0.11300
H320        H  0.53355578  0.22246122  0.80688515     0.11300
C321        C  0.26555558  0.46193936  0.76982051    -0.14800
C322        C  0.22100580  0.44175972  0.74878804     0.07300
C323        C  0.19814625  0.46492421  0.73683027    -0.14800
C324        C  0.21857314  0.50638432  0.74567012    -0.14800
C325        C  0.26253973  0.02610192  0.76722222     0.07300
C326        C  0.28596347  0.50339000  0.77856670    -0.14800
H327        H  0.28500227  0.44661042  0.78079021     0.11300
H328        H  0.16397880  0.45073481  0.72073759     0.11300
H329        H  0.20008614  0.02309524  0.73566784     0.11300
H330        H  0.31942094  0.51745545  0.79544162     0.11300
O331        O  0.42746050  0.65401198  0.88914734    -0.82400
O332        O  0.32318297  0.73869872  0.80145938    -0.67100
O333        O  0.35781476  0.67986988  0.86636485    -1.13700
C334        C  0.28039312  0.56908287  0.78027049     1.04500
O335        O  0.25171942  0.68901047  0.78083562    -0.80300
O336        O  0.22625025  0.63032048  0.82614378    -0.67800
Ni337      Ni  0.42388948  0.70405316  0.88742595     1.34900
C338        C  0.23391754  0.61108936  0.85028477     0.83300
O339        O  0.36032081  0.75628108  0.86828636    -0.80800
O340        O  0.42958302  0.75783622  0.89114022    -0.91100
C341        C  0.28121626  0.72586521  0.78549581     0.82800
O342        O  0.45483522  0.71169833  0.84180012    -0.69300
O343        O  0.25223822  0.58586004  0.77498315    -0.88600
C344        C  0.44813437  0.73132554  0.81751994     0.83700
C345        C  0.40150267  0.77458105  0.88562997     1.05200
H346        H  0.34549391  0.66912379  0.78065365     0.37000
O347        O  0.32316368  0.66344154  0.80044538    -1.11200
O348        O  0.27468333  0.60831764  0.85347475    -0.67900
Ni349      Ni  0.33947289  0.63305004  0.83252544     1.26300
O350        O  0.40745845  0.73426607  0.81358880    -0.68100
O351        O  0.32138145  0.58722397  0.79796012    -0.80400
C352        C  0.39842885  0.61720156  0.88276335     0.83000
O353        O  0.35818964  0.60463998  0.86462863    -0.67600
Ni354      Ni  0.25664107  0.63930182  0.78037692     1.27400
Ni355      Ni  0.34202307  0.71035569  0.83399835     1.26100
H356        H  0.33501318  0.67406251  0.88586648     0.37600
C357        C  0.19686349  0.89633863  0.73859094     0.85000
C358        C  0.22596920  0.87333236  0.74977416    -0.55200
C359        C  0.20318628  0.83306524  0.74069390     0.07900
C360        C  0.15354577  0.81927995  0.71986103     0.18900
C361        C  0.18802934  0.88534500  0.69760204    -0.56000
C362        C  0.16516293  0.84505338  0.68720303     0.08000
C363        C  0.14548813  0.87460012  0.75459083    -0.55500
C364        C  0.12306518  0.83415125  0.74510895     0.08600
H365        H  0.26218059  0.88701758  0.76279356     0.13100
H366        H  0.13456912  0.78655873  0.71296142    -0.01100
H367        H  0.19951931  0.90834011  0.67898665     0.13400
H368        H  0.12944442  0.88963531  0.77312526     0.13200
C369        C  0.48401414  0.94709071  0.92660039     0.85000
C370        C  0.03635931  0.96952226  0.91183904    -0.55200
C371        C  0.05733091  0.50936324  0.92126695     0.07900
C372        C  0.02537746  0.52377157  0.94552636     0.18900
C373        C  0.49093933  0.95793381  0.96771665    -0.56000
C374        C  0.01226346  0.49800612  0.97809056     0.08000
C375        C  0.45478570  0.96961173  0.91449905    -0.55500
C376        C  0.47658831  0.50968693  0.92408180     0.08600
H377        H  0.05345515  0.95471602  0.89404399     0.13100
H378        H  0.04356996  0.55645145  0.95250557    -0.01100
H379        H  0.47844815  0.93498021  0.98639537     0.13400
H380        H  0.41856627  0.95558348  0.90144249     0.13200
O381        O  0.13100799  0.52889147  0.45740085    -0.82400
O382        O  0.42037822  0.93332119  0.52522291    -0.67100
O383        O  0.02933056  0.99766530  0.46957027    -1.13700
C384        C  0.04394826  0.60695024  0.54939945     1.04500
O385        O  0.39739152  0.98069188  0.54602446    -0.80300
O386        O  0.43558608  0.53522832  0.49541634    -0.67800
Ni387      Ni  0.07685826  0.97713523  0.45724754     1.34900
C388        C  0.46702255  0.55842727  0.47485815     0.83300
O389        O  0.45484985  0.91878887  0.46211028    -0.80800
O390        O  0.02965085  0.92194762  0.45240210    -0.91100
C391        C  0.39041035  0.94440619  0.54153321     0.82800
O392        O  0.09060820  0.97324735  0.50659329    -0.69300
O393        O  0.99737677  0.58765107  0.54819596    -0.88600
C394        C  0.05849546  0.94993414  0.52665015     0.83700
C395        C  0.48295891  0.90265485  0.45126659     1.05200
H396        H  0.01113134  0.50687823  0.55341262     0.37000
O397        O  0.99792242  0.51164833  0.53153722    -1.11200
O398        O  0.01280771  0.56553739  0.47681048    -0.67900
Ni399      Ni  0.05148791  0.54475009  0.50355923     1.26300
O400        O  0.01298232  0.94304209  0.52408655    -0.68100
O401        O  0.07201397  0.59080320  0.53855380    -0.80400
C402        C  0.13721349  0.56504794  0.46062266     0.83000
O403        O  0.10614887  0.57598462  0.47537564    -0.67600
Ni404      Ni  0.45091394  0.53238638  0.54464634     1.27400
Ni405      Ni  0.47536214  0.96465227  0.49735768     1.26100
H406        H  0.01640921  0.00229878  0.44749517     0.37600
C407        C  0.40402432  0.73139420  0.40547656     0.85000
C408        C  0.35208578  0.71062467  0.42019362    -0.55200
C409        C  0.32777783  0.67064555  0.40980804     0.07900
C410        C  0.35858994  0.65491151  0.38531537     0.18900
C411        C  0.43101960  0.70675485  0.41772037    -0.56000
C412        C  0.40685913  0.66653930  0.40740803     0.08000
C413        C  0.39700587  0.72153742  0.36442135    -0.55500
C414        C  0.37341840  0.68155876  0.35323896     0.08600
H415        H  0.33592230  0.72686629  0.43709952     0.13100
H416        H  0.33995810  0.62238848  0.37753551    -0.01100
H417        H  0.46429922  0.71880284  0.43475794     0.13400
H418        H  0.41027189  0.74508573  0.34635183     0.13200
C419        C  0.12336757  0.77782756  0.59644458     0.85000
C420        C  0.13037134  0.78824746  0.63757441    -0.55200
C421        C  0.15391398  0.82839267  0.64823494     0.07900
C422        C  0.16838080  0.85440607  0.61577640     0.18900
C423        C  0.09640104  0.80212027  0.58351035    -0.56000
C424        C  0.12009964  0.84240731  0.59352900     0.08000
C425        C  0.17533430  0.79851937  0.58171993    -0.55500
C426        C  0.19958628  0.83857000  0.59180103     0.08600
H427        H  0.11753149  0.76515106  0.65614793     0.13100
H428        H  0.18661376  0.88684726  0.62334402    -0.01100
H429        H  0.06347809  0.78962779  0.56608052     0.13400
H430        H  0.19150335  0.78207891  0.56513726     0.13200
O431        O  0.28303986  0.82460022  0.20978128    -0.82400
O432        O  0.17122815  0.90692088  0.13217016    -0.67100
O433        O  0.20979241  0.85140297  0.19788842    -1.13700
C434        C  0.12781086  0.73677816  0.11568994     1.04500
O435        O  0.09904247  0.85707471  0.11338676    -0.80300
O436        O  0.07237514  0.79583344  0.15675049    -0.67800
Ni437      Ni  0.27679535  0.87419935  0.21611228     1.34900
C438        C  0.08138614  0.78070860  0.18378362     0.83300
O439        O  0.21314074  0.92773245  0.19761061    -0.80800
O440        O  0.27858555  0.92661415  0.22542604    -0.91100
C441        C  0.12882075  0.89397462  0.11706223     0.82800
O442        O  0.30784922  0.88792824  0.17117254    -0.69300
O443        O  0.10286888  0.75483784  0.10590970    -0.88600
C444        C  0.29751359  0.90389832  0.14552107     0.83700
C445        C  0.25209188  0.94436367  0.21792589     1.05200
H446        H  0.19393932  0.83558391  0.11383064     0.37000
O447        O  0.17138159  0.83131262  0.13349114    -1.11200
O448        O  0.12362040  0.78146992  0.19018459    -0.67900
Ni449      Ni  0.18743679  0.80221454  0.16775815     1.26300
O450        O  0.25518000  0.90363224  0.14135481    -0.68100
O451        O  0.16559464  0.75339818  0.13697955    -0.80400
C452        C  0.25186197  0.78880250  0.21296208     0.83000
O453        O  0.20705993  0.77642227  0.20272497    -0.67600
Ni454      Ni  0.10551249  0.80759657  0.11218168     1.27400
Ni455      Ni  0.19214999  0.88020770  0.16493322     1.26100
H456        H  0.18895971  0.84772035  0.21844808     0.37600
C457        C  0.04660423  0.56597156  0.06849142     0.85000
C458        C  0.07578396  0.54372436  0.08138913    -0.55200
C459        C  0.05457991  0.00354894  0.07192894     0.07900
C460        C  0.50588242  0.98925901  0.04952083     0.18900
C461        C  0.04122617  0.55513130  0.02729162    -0.56000
C462        C  0.01968081  0.51485636  0.01690156     0.08000
C463        C  0.49461111  0.54396620  0.08254393    -0.55500
C464        C  0.47301286  0.00358970  0.07288778     0.08600
H465        H  0.11144821  0.55864873  0.09555090     0.13100
H466        H  0.48783577  0.95658068  0.04247791    -0.01100
H467        H  0.05498266  0.57782023  0.00844398     0.13400
H468        H  0.47720234  0.55882980  0.09996236     0.13200
C469        C  0.33399244  0.61648580  0.26143344     0.85000
C470        C  0.38596723  0.63874932  0.24653991    -0.55200
C471        C  0.40815976  0.67882419  0.25725260     0.07900
C472        C  0.37660296  0.69289125  0.28224687     0.18900
C473        C  0.34116176  0.62604315  0.30261264    -0.56000
C474        C  0.36350842  0.66597593  0.31403381     0.08000
C475        C  0.30567758  0.64003274  0.24958124    -0.55500
C476        C  0.32753902  0.68004268  0.26070563     0.08600
H477        H  0.40260143  0.62443975  0.22774421     0.13100
H478        H  0.39544587  0.72524643  0.29044573    -0.01100
H479        H  0.32912442  0.60245142  0.32067239     0.13400
H480        H  0.27289960  0.62722594  0.23211049     0.13200
C481        C  0.37720330  0.91482732  0.11618130    -0.14800
C482        C  0.33803412  0.92579670  0.12122641     0.07300
C483        C  0.34188399  0.96117071  0.10740436    -0.14800
C484        C  0.38513558  0.98607341  0.09082697    -0.14800
C485        C  0.42497989  0.97570062  0.08707147     0.07300
C486        C  0.41989044  0.93925008  0.09904674    -0.14800
H487        H  0.37552791  0.88792040  0.12667195     0.11300
H488        H  0.31264836  0.97073068  0.11124542     0.11300
H489        H  0.38785843  0.01384732  0.08160550     0.11300
H490        H  0.45000627  0.93054718  0.09694395     0.11300
C491        C  0.05955706  0.63728727  0.06024730    -0.14800
C492        C  0.06958754  0.61085926  0.08028681     0.07300
C493        C  0.09815899  0.62660335  0.11283849    -0.14800
C494        C  0.11884996  0.66769481  0.12352629    -0.14800
C495        C  0.11012972  0.69398252  0.10265473     0.07300
C496        C  0.07987574  0.67827645  0.07111040    -0.14800
H497        H  0.53355294  0.62584051  0.03737066     0.11300
H498        H  0.10389536  0.60727773  0.13067618     0.11300
H499        H  0.14019933  0.67870506  0.14883009     0.11300
H500        H  0.07136251  0.69768316  0.05498556     0.11300
C501        C  0.12257360  0.95874511  0.12554983    -0.14800
C502        C  0.11241564  0.92289020  0.10432255     0.07300
C503        C  0.08474520  0.91416311  0.07171720    -0.14800
C504        C  0.06718960  0.94091401  0.06058986    -0.14800
C505        C  0.07592387  0.97631547  0.08239230     0.07300
C506        C  0.10405235  0.98500407  0.11491172    -0.14800
H507        H  0.14336351  0.96575221  0.15102557     0.11300
H508        H  0.07695744  0.88674450  0.05479693     0.11300
H509        H  0.04687192  0.93377662  0.03494010     0.11300
H510        H  0.11047715  0.51184361  0.13278381     0.11300
C511        C  0.31996725  0.77500627  0.23709619    -0.14800
C512        C  0.26977646  0.76108538  0.22719491     0.07300
C513        C  0.23787723  0.72081392  0.23060663    -0.14800
C514        C  0.25625406  0.69477597  0.24244738    -0.14800
C515        C  0.30701599  0.70835327  0.25090099     0.07300
C516        C  0.33825407  0.74911448  0.24888963    -0.14800
H517        H  0.34560848  0.80598970  0.23520933     0.11300
H518        H  0.19885009  0.70930656  0.22377033     0.11300
H519        H  0.23047988  0.66400199  0.24488980     0.11300
H520        H  0.37727944  0.76138152  0.25538395     0.11300
C521        C  0.26189740  0.54987012  0.23578805    -0.14800
C522        C  0.31037984  0.57126015  0.25085671     0.07300
C523        C  0.33721193  0.54937306  0.25802306    -0.14800
C524        C  0.31757216  0.50809669  0.24879761    -0.14800
C525        C  0.26965197  0.98705522  0.23190928     0.07300
C526        C  0.24233610  0.50852970  0.22637239    -0.14800
H527        H  0.23814278  0.56420010  0.23130591     0.11300
H528        H  0.37397777  0.56447975  0.27044256     0.11300
H529        H  0.33927220  0.99245954  0.25419750     0.11300
H530        H  0.20550737  0.49332611  0.21407110     0.11300
C531        C  0.04151857  0.73018631  0.22923825    -0.14800
C532        C  0.03951754  0.75858481  0.20707494     0.07300
C533        C  0.99448836  0.76138318  0.20334144    -0.14800
C534        C  0.45230649  0.73563262  0.21977456    -0.14800
C535        C  0.45422690  0.70713396  0.24144949     0.07300
C536        C  0.49945862  0.70520746  0.24660536    -0.14800
H537        H  0.07531107  0.72671741  0.23229770     0.11300
H538        H  0.99120741  0.78239002  0.18617402     0.11300
H539        H  0.41760943  0.73682463  0.21445747     0.11300
H540        H  0.50172488  0.68332631  0.26316654     0.11300
C541        C  0.25921476  0.65572986  0.45443611    -0.14800
C542        C  0.27721418  0.64508923  0.42194998     0.07300
C543        C  0.24667595  0.60937740  0.40138365    -0.14800
C544        C  0.20056061  0.58423780  0.41363118    -0.14800
C545        C  0.18317455  0.59456334  0.44628061     0.07300
C546        C  0.21240558  0.63093170  0.46623245    -0.13900
H547        H  0.28170656  0.68254825  0.47152602     0.11300
H548        H  0.25815364  0.60056583  0.37578697     0.11300
H549        H  0.17844993  0.55634303  0.39764888     0.11300
H550        H  0.20008971  0.63921148  0.49175566     0.11300
C551        C  0.49087559  0.83837095  0.44489946    -0.14800
C552        C  0.46270796  0.85949348  0.43872538     0.07300
C553        C  0.41688378  0.83916131  0.42026879    -0.14800
C554        C  0.39954823  0.79838269  0.40853408    -0.14800
C555        C  0.42669045  0.77658473  0.41614108     0.07300
C556        C  0.47317600  0.79755423  0.43392740    -0.14800
H557        H  0.02676036  0.85343286  0.45871085     0.11300
H558        H  0.39482280  0.85483355  0.41458175     0.11300
H559        H  0.36408461  0.78342499  0.39414041     0.11300
H560        H  0.49648676  0.78311052  0.43954675     0.11300
C561        C  0.48647403  0.61644609  0.43724732    -0.14800
C562        C  0.45117914  0.58192144  0.45146521     0.07300
C563        C  0.40107099  0.57412852  0.44824323    -0.14800
C564        C  0.38684051  0.60086044  0.43264504    -0.14800
C565        C  0.42229816  0.63634684  0.42022103     0.07300
C566        C  0.47222457  0.64348797  0.42205800    -0.14800
H567        H  0.52543228  0.62372384  0.43957328     0.11300
H568        H  0.37288317  0.54818736  0.45921933     0.11300
H569        H  0.34814339  0.59470213  0.43204147     0.11300
H570        H  0.50033771  0.67041882  0.41242387     0.11300
C571        C  0.27933934  0.90121680  0.59938929    -0.14800
C572        C  0.25059240  0.86402814  0.58022028     0.07300
C573        C  0.27088608  0.85193209  0.54965606    -0.14800
C574        C  0.31772744  0.87691398  0.53807331    -0.14800
C575        C  0.34468897  0.91489385  0.55618260     0.07300
C576        C  0.32536136  0.92647059  0.58724994    -0.14800
H577        H  0.26667853  0.91128745  0.62380399     0.11300
H578        H  0.25025445  0.82383987  0.53367347     0.11300
H579        H  0.33171479  0.86740339  0.51394090     0.11300
H580        H  0.34580636  0.95547566  0.60207511     0.11300
C581        C  0.03487326  0.67073064  0.55859652    -0.14800
C582        C  0.06417885  0.64999639  0.56227492     0.07300
C583        C  0.11118476  0.67051712  0.57893082    -0.14800
C584        C  0.12861049  0.71108357  0.59134614    -0.14800
C585        C  0.10049651  0.73263210  0.58586796     0.07300
C586        C  0.05272024  0.71142747  0.57008754    -0.14800
H587        H  0.99806299  0.65553022  0.54623394     0.11300
H588        H  0.13413490  0.65512188  0.58276157     0.11300
H589        H  0.16496046  0.72609142  0.60442798     0.11300
H590        H  0.02842464  0.72556746  0.56668139     0.11300
C591        C  0.12357811  0.93691488  0.55789844    -0.14800
C592        C  0.07341689  0.92617381  0.55023346     0.07300
C593        C  0.03825656  0.88892280  0.55992991    -0.14800
C594        C  0.05312668  0.86220792  0.57498641    -0.14800
C595        C  0.10351160  0.87218689  0.58099847     0.07300
C596        C  0.13841212  0.91033990  0.57312952    -0.14800
H597        H  0.15163478  0.96519349  0.55054446     0.11300
H598        H  0.99931515  0.87940629  0.55399801     0.11300
H599        H  0.02516169  0.83335279  0.58115130     0.11300
H600        H  0.17754737  0.91903780  0.57678152     0.11300
C601        C  0.46171361  0.83706722  0.92134187    -0.14800
C602        C  0.41955659  0.81763485  0.89816275     0.07300
C603        C  0.39794783  0.84055022  0.88427022    -0.14800
C604        C  0.41832170  0.88196415  0.89272865    -0.14800
C605        C  0.46061214  0.90180435  0.91610150     0.07300
C606        C  0.48198838  0.87852488  0.93005076    -0.14800
H607        H  0.47960819  0.82031278  0.93235917     0.11300
H608        H  0.36618255  0.82667523  0.86570966     0.11300
H609        H  0.40092471  0.89760773  0.87959500     0.11300
H610        H  0.01340934  0.89220384  0.94912000     0.11300
C611        C  0.11044213  0.57444473  0.89575791    -0.14800
C612        C  0.10506912  0.53742482  0.90669711     0.07300
C613        C  0.14470939  0.52697356  0.90221229    -0.14800
C614        C  0.18804328  0.55234268  0.88612352    -0.14800
C615        C  0.19232844  0.58836015  0.87343496     0.07300
C616        C  0.15331525  0.59940785  0.87902518    -0.14800
H617        H  0.08051757  0.58331709  0.89851796     0.11300
H618        H  0.14189500  0.49887495  0.91068112     0.11300
H619        H  0.21719587  0.54274469  0.88192330     0.11300
H620        H  0.15535478  0.62684894  0.86947490     0.11300
C621        C  0.44337040  0.59727858  0.92730669    -0.14800
C622        C  0.41392600  0.58801468  0.89552827     0.07300
C623        C  0.40330779  0.55227655  0.87407764    -0.14800
C624        C  0.42376150  0.52692853  0.88334030    -0.14800
C625        C  0.45402665  0.53632116  0.91484830     0.07300
C626        C  0.46284603  0.57136601  0.93713022    -0.14800
H627        H  0.45164266  0.62472470  0.94432495     0.11300
H628        H  0.38126045  0.54494766  0.84917425     0.11300
H629        H  0.41715240  0.00080266  0.86504698     0.11300
H630        H  0.48477654  0.57891956  0.96207077     0.11300
C631        C  0.27560917  0.79089322  0.79304892    -0.14800
C632        C  0.26416171  0.75433482  0.77279646     0.07300
C633        C  0.23251454  0.74347431  0.74199035    -0.14800
C634        C  0.21304220  0.76911269  0.73128698    -0.14800
C635        C  0.22408931  0.80571472  0.75166070     0.07300
C636        C  0.25515538  0.81604807  0.78294397    -0.14800
H637        H  0.29878662  0.79927164  0.81746228     0.11300
H638        H  0.22298028  0.71513924  0.72610756     0.11300
H639        H  0.18985114  0.76031370  0.70689257     0.11300
H640        H  0.26306100  0.84320497  0.80021424     0.11300
C641        C  0.07540032  0.77266494  0.77695832    -0.14800
C642        C  0.07681846  0.80628034  0.76120860     0.07300
C643        C  0.03444565  0.81330111  0.76166293    -0.14800
C644        C  0.49175499  0.78755902  0.77836989    -0.14800
C645        C  0.49064845  0.75451377  0.79515191     0.07300
C646        C  0.53296400  0.74715574  0.79394904    -0.14800
H647        H  0.10774420  0.76673353  0.77716168     0.11300
H648        H  0.03456748  0.83887871  0.74952006     0.11300
H649        H  0.46017181  0.79448741  0.77916905     0.11300
H650        H  0.53371704  0.72231306  0.80688649     0.11300
C651        C  0.26514682  0.96184179  0.77050559    -0.14800
C652        C  0.22110716  0.94178881  0.74889370     0.07300
C653        C  0.19863520  0.96504592  0.73651160    -0.14800
C654        C  0.21906432  0.00650478  0.74537424    -0.14800
C655        C  0.26246794  0.52608876  0.76705223     0.07300
C656        C  0.28557217  0.00329149  0.77925674    -0.14800
H657        H  0.28407039  0.94637727  0.78198497     0.11300
H658        H  0.16479166  0.95094021  0.72004370     0.11300
H659        H  0.19924845  0.52288169  0.73633955     0.11300
H660        H  0.31861927  0.01726423  0.79656811     0.11300
O661        O  0.92746163  0.15386802  0.88910188    -0.82400
O662        O  0.82293017  0.23874000  0.80188946    -0.67100
O663        O  0.85782213  0.17971321  0.86640559    -1.13700
C664        C  0.78037488  0.06907852  0.78027352     1.04500
O665        O  0.75181481  0.18900924  0.78069919    -0.80300
O666        O  0.72649848  0.13058157  0.82626707    -0.67800
Ni667      Ni  0.92390913  0.20390763  0.88740175     1.34900
C668        C  0.73414293  0.11129134  0.85036344     0.83300
O669        O  0.86002634  0.25596423  0.86875603    -0.80800
O670        O  0.92958708  0.25767216  0.89115483    -0.91100
C671        C  0.78111771  0.22588580  0.78567833     0.82800
O672        O  0.95466743  0.21155127  0.84171161    -0.69300
O673        O  0.75212447  0.08580927  0.77516341    -0.88600
C674        C  0.94798135  0.23136287  0.81759453     0.83700
C675        C  0.90130814  0.27431472  0.88596453     1.05200
H676        H  0.84555824  0.16930799  0.78068695     0.37000
O677        O  0.82320713  0.16350486  0.80046770    -1.11200
O678        O  0.77478958  0.10830125  0.85339579    -0.67900
Ni679      Ni  0.83955202  0.13302673  0.83244217     1.26300
O680        O  0.90734028  0.23440480  0.81383276    -0.68100
O681        O  0.82149134  0.08728704  0.79778115    -0.80400
C682        C  0.89841234  0.11706713  0.88269022     0.83000
O683        O  0.85824904  0.10452684  0.86446078    -0.67600
Ni684      Ni  0.75666531  0.13930110  0.78041843     1.27400
Ni685      Ni  0.84189612  0.21026445  0.83422355     1.26100
H686        H  0.83505806  0.17381322  0.88593345     0.37600
C687        C  0.69678630  0.39636988  0.73870313     0.85000
C688        C  0.72582206  0.37333173  0.74994772    -0.55200
C689        C  0.70302233  0.33306595  0.74086219     0.07900
C690        C  0.65342890  0.31931385  0.71996914     0.18900
C691        C  0.68800878  0.38538077  0.69771497    -0.56000
C692        C  0.66514451  0.34509484  0.68730766     0.08000
C693        C  0.64537749  0.37465493  0.75466912    -0.55500
C694        C  0.62292763  0.33420295  0.74518799     0.08600
H695        H  0.76196886  0.38698165  0.76305835     0.13100
H696        H  0.63443440  0.28659698  0.71305401    -0.01100
H697        H  0.69954671  0.40838147  0.67910355     0.13400
H698        H  0.62934352  0.38970518  0.77319575     0.13200
C699        C  0.98339215  0.44684066  0.92660105     0.85000
C700        C  0.53590275  0.46919697  0.91176246    -0.55200
C701        C  0.55775404  0.00972619  0.92142040     0.07900
C702        C  0.52564677  0.02400990  0.94561748     0.18900
C703        C  0.99050952  0.45772823  0.96768475    -0.56000
C704        C  0.51257470  0.99822095  0.97815797     0.08000
C705        C  0.95439841  0.46951663  0.91439500    -0.55500
C706        C  0.97677171  0.00979037  0.92414540     0.08600
H707        H  0.55289669  0.45432177  0.89394839     0.13100
H708        H  0.54372746  0.05669232  0.95262302    -0.01100
H709        H  0.97804870  0.43478205  0.98637651     0.13400
H710        H  0.91855101  0.45576490  0.90083108     0.13200
O711        O  0.63092957  0.02900105  0.45750392    -0.82400
O712        O  0.92045718  0.43326552  0.52516741    -0.67100
O713        O  0.52944380  0.49763031  0.46955363    -1.13700
C714        C  0.54386282  0.10703907  0.54939486     1.04500
O715        O  0.89740534  0.48062680  0.54587199    -0.80300
O716        O  0.93541223  0.03526444  0.49554371    -0.67800
Ni717      Ni  0.57692501  0.47704525  0.45723200     1.34900
C718        C  0.96678130  0.05838770  0.47490104     0.83300
O719        O  0.95494074  0.41874349  0.46205644    -0.80800
O720        O  0.52970908  0.42184892  0.45243747    -0.91100
C721        C  0.89046567  0.44434750  0.54144471     0.82800
O722        O  0.59069488  0.47322055  0.50659288    -0.69300
O723        O  0.49729650  0.08772599  0.54826849    -0.88600
C724        C  0.55856748  0.44993864  0.52666243     0.83700
C725        C  0.98302608  0.40256544  0.45127406     1.05200
H726        H  0.51113785  0.00696723  0.55342955     0.37000
O727        O  0.49786544  0.01171753  0.53157354    -1.11200
O728        O  0.51254719  0.06550653  0.47680008    -0.67900
Ni729      Ni  0.55134638  0.04481629  0.50352892     1.26300
O730        O  0.51304804  0.44301640  0.52405496    -0.68100
O731        O  0.57191175  0.09090523  0.53847869    -0.80400
C732        C  0.63701830  0.06512706  0.46059027     0.83000
O733        O  0.60588619  0.07603644  0.47525689    -0.67600
Ni734      Ni  0.95088640  0.03245038  0.54474736     1.27400
Ni735      Ni  0.97544905  0.46460340  0.49731069     1.26100
H736        H  0.51655392  0.50229883  0.44748117     0.37600
C737        C  0.90386636  0.23127298  0.40542259     0.85000
C738        C  0.85197291  0.21052762  0.42021527    -0.55200
C739        C  0.82760338  0.17055844  0.40981146     0.07900
C740        C  0.85832008  0.15479024  0.38525724     0.18900
C741        C  0.93086534  0.20660148  0.41758048    -0.56000
C742        C  0.90664129  0.16638832  0.40727182     0.08000
C743        C  0.89671553  0.22141865  0.36437000    -0.55500
C744        C  0.87306850  0.18143757  0.35318727     0.08600
H745        H  0.83586476  0.22678274  0.43716101     0.13100
H746        H  0.83964257  0.12226388  0.37748293    -0.01100
H747        H  0.96418214  0.21862515  0.43457796     0.13400
H748        H  0.90993578  0.24497215  0.34630582     0.13200
C749        C  0.62345275  0.27790396  0.59652254     0.85000
C750        C  0.63044649  0.28831006  0.63765275    -0.55200
C751        C  0.65399840  0.32845088  0.64832592     0.07900
C752        C  0.66851966  0.35447762  0.61587018     0.18900
C753        C  0.59652793  0.30222260  0.58358665    -0.56000
C754        C  0.62024020  0.34251236  0.59361778     0.08000
C755        C  0.67541774  0.29857325  0.58179867    -0.55500
C756        C  0.69970252  0.33861614  0.59188492     0.08600
H757        H  0.61756476  0.26520760  0.65621965     0.13100
H758        H  0.68680609  0.38691311  0.62345294    -0.01100
H759        H  0.56361774  0.28972624  0.56614308     0.13400
H760        H  0.69155998  0.28212602  0.56519732     0.13200
O761        O  0.78288534  0.32454289  0.20963179    -0.82400
O762        O  0.67112018  0.40707667  0.13248003    -0.67100
O763        O  0.70972567  0.35149116  0.19808397    -1.13700
C764        C  0.62748805  0.23691698  0.11576645     1.04500
O765        O  0.59880553  0.35724879  0.11393312    -0.80300
O766        O  0.57209915  0.29577372  0.15689605    -0.67800
Ni767      Ni  0.77677552  0.37417285  0.21617323     1.34900
C768        C  0.58112321  0.28078790  0.18401724     0.83300
O769        O  0.71325810  0.42787070  0.19787798    -0.80800
O770        O  0.77865694  0.42659469  0.22563810    -0.91100
C771        C  0.62863970  0.39412949  0.11749501     0.82800
O772        O  0.80775276  0.38796591  0.17121808    -0.69300
O773        O  0.60269265  0.25505711  0.10589390    -0.88600
C774        C  0.79734472  0.40390547  0.14557953     0.83700
C775        C  0.75221866  0.44441088  0.21819591     1.05200
H776        H  0.69369282  0.33566599  0.11408246     0.37000
O777        O  0.67114846  0.33142640  0.13374866    -1.11200
O778        O  0.62339603  0.28165733  0.19051607    -0.67900
Ni779      Ni  0.68716179  0.30228358  0.16797578     1.26300
O780        O  0.75501949  0.40367266  0.14149270    -0.68100
O781        O  0.66513913  0.25345645  0.13719563    -0.80400
C782        C  0.75167056  0.28880480  0.21298277     0.83000
O783        O  0.70681683  0.27647324  0.20290267    -0.67600
Ni784      Ni  0.60531429  0.30779303  0.11241196     1.27400
Ni785      Ni  0.69207618  0.38033620  0.16518858     1.26100
H786        H  0.68897340  0.34785802  0.21868702     0.37600
C787        C  0.54683323  0.06607160  0.06863431     0.85000
C788        C  0.57598155  0.04375532  0.08148007    -0.55200
C789        C  0.55435953  0.50344636  0.07193338     0.07900
C790        C  0.00567930  0.48913461  0.04949898     0.18900
C791        C  0.54147541  0.05532293  0.02742289    -0.56000
C792        C  0.51992917  0.01504680  0.01697161     0.08000
C793        C  0.99480135  0.04407073  0.08261178    -0.55500
C794        C  0.97280179  0.50348048  0.07284530     0.08600
H795        H  0.61171484  0.05858832  0.09553479     0.13100
H796        H  0.98766546  0.45645219  0.04248167    -0.01100
H797        H  0.55513854  0.07809893  0.00863924     0.13400
H798        H  0.97735420  0.05889523  0.10003960     0.13200
C799        C  0.83351024  0.11639935  0.26133792     0.85000
C800        C  0.88552938  0.13864020  0.24650330    -0.55200
C801        C  0.90777081  0.17869861  0.25727230     0.07900
C802        C  0.87622054  0.19279309  0.28222453     0.18900
C803        C  0.84061584  0.12592313  0.30253825    -0.56000
C804        C  0.86304674  0.16585607  0.31398668     0.08000
C805        C  0.80526904  0.14000701  0.24950370    -0.55500
C806        C  0.82720353  0.17999954  0.26065638     0.08600
H807        H  0.90215684  0.12432914  0.22770328     0.13100
H808        H  0.89506478  0.22515752  0.29041235    -0.01100
H809        H  0.82851112  0.10231999  0.32058756     0.13400
H810        H  0.77243899  0.12727782  0.23209103     0.13200
C811        C  0.87675457  0.41458583  0.11590094    -0.14800
C812        C  0.83778166  0.42574711  0.12120956     0.07300
C813        C  0.84179843  0.46126773  0.10761005    -0.14800
C814        C  0.88504752  0.48613742  0.09101641    -0.14800
C815        C  0.92473818  0.47560106  0.08702586     0.07300
C816        C  0.91945092  0.43898854  0.09875526    -0.14800
H817        H  0.87493278  0.38755041  0.12621168     0.11300
H818        H  0.81271160  0.47096733  0.11165523     0.11300
H819        H  0.88789247  0.51402047  0.08197671     0.11300
H820        H  0.94942688  0.43013364  0.09647296     0.11300
C821        C  0.55827148  0.13706627  0.06094564    -0.14800
C822        C  0.56969970  0.11096335  0.08041633     0.07300
C823        C  0.59950959  0.12702460  0.11239213    -0.14800
C824        C  0.61992197  0.16810759  0.12303419    -0.14800
C825        C  0.60981034  0.19410714  0.10270412     0.07300
C826        C  0.57837910  0.17807423  0.07174884    -0.14800
H827        H  0.03202706  0.12549638  0.03823837     0.11300
H828        H  0.60635808  0.10798780  0.12993180     0.11300
H829        H  0.64221433  0.17932194  0.14791690     0.11300
H830        H  0.56879842  0.19722002  0.05604159     0.11300
C831        C  0.62222393  0.45883001  0.12589855    -0.14800
C832        C  0.61220279  0.42298374  0.10470987     0.07300
C833        C  0.58459761  0.41416281  0.07206651    -0.14800
C834        C  0.56700075  0.44083447  0.06083287    -0.14800
C835        C  0.57564601  0.47625255  0.08256228     0.07300
C836        C  0.60365998  0.48501677  0.11514944    -0.14800
H837        H  0.64294596  0.46588676  0.15141045     0.11300
H838        H  0.57690457  0.38673224  0.05519312     0.11300
H839        H  0.54674442  0.43363622  0.03515111     0.11300
H840        H  0.61088399  0.01171168  0.13260565     0.11300
C841        C  0.81989333  0.27491163  0.23671683    -0.14800
C842        C  0.76959568  0.26109881  0.22719666     0.07300
C843        C  0.73758866  0.22093976  0.23096692    -0.14800
C844        C  0.75593979  0.19488820  0.24279663    -0.14800
C845        C  0.80676839  0.20834716  0.25087625     0.07300
C846        C  0.83815746  0.24899793  0.24848702    -0.14800
H847        H  0.84562407  0.30580905  0.23452935     0.11300
H848        H  0.69849435  0.20953078  0.22442391     0.11300
H849        H  0.73011127  0.16419183  0.24552063     0.11300
H850        H  0.87726363  0.26111514  0.25464638     0.11300
C851        C  0.76176071  0.04986906  0.23500216    -0.14800
C852        C  0.80991664  0.07118108  0.25067544     0.07300
C853        C  0.83652392  0.04923490  0.25824583    -0.14800
C854        C  0.81696043  0.00796981  0.24897111    -0.14800
C855        C  0.76987726  0.48708529  0.23223910     0.07300
C856        C  0.74227893  0.00853676  0.22554142    -0.14800
H857        H  0.73820663  0.06424119  0.23001993     0.11300
H858        H  0.87306152  0.06429120  0.27104620     0.11300
H859        H  0.83994003  0.49257669  0.25371735     0.11300
H860        H  0.70571753  0.99340145  0.21279068     0.11300
C861        C  0.54150634  0.23109493  0.23025144    -0.14800
C862        C  0.53916749  0.25870748  0.20727096     0.07300
C863        C  0.49375694  0.26068901  0.20268769    -0.14800
C864        C  0.95163956  0.23494805  0.21922478    -0.14800
C865        C  0.95381437  0.20701416  0.24148051     0.07300
C866        C  0.99929698  0.20572833  0.24731168    -0.14800
H867        H  0.57561256  0.22828511  0.23402274     0.11300
H868        H  0.49019673  0.28108002  0.18491041     0.11300
H869        H  0.91676728  0.23566150  0.21345005     0.11300
H870        H  0.00175118  0.18430330  0.26436573     0.11300
C871        C  0.75909066  0.15568463  0.45445599    -0.14800
C872        C  0.77702111  0.14505865  0.42193292     0.07300
C873        C  0.74638458  0.10943197  0.40129716    -0.14800
C874        C  0.70023682  0.08433948  0.41352586    -0.14800
C875        C  0.68293573  0.09463983  0.44622345     0.07300
C876        C  0.71225510  0.13093911  0.46623396    -0.13900
H877        H  0.78166035  0.18244136  0.47159005     0.11300
H878        H  0.75781933  0.10064910  0.37566926     0.11300
H879        H  0.67804725  0.05649154  0.39750662     0.11300
H880        H  0.69999429  0.13918720  0.49179454     0.11300
C881        C  0.99091326  0.33825078  0.44475947    -0.14800
C882        C  0.96272558  0.35939352  0.43871762     0.07300
C883        C  0.91680794  0.33906360  0.42038337    -0.14800
C884        C  0.89941444  0.29828319  0.40862927    -0.14800
C885        C  0.92658612  0.27646843  0.41610204     0.07300
C886        C  0.97315334  0.29742739  0.43377399    -0.14800
H887        H  0.52689655  0.35333407  0.45837816     0.11300
H888        H  0.89471351  0.35473954  0.41480380     0.11300
H889        H  0.86388290  0.28333748  0.39432738     0.11300
H890        H  0.99648325  0.28296705  0.43928482     0.11300
C891        C  0.98612430  0.11611382  0.43693038    -0.14800
C892        C  0.95086516  0.08178836  0.45144528     0.07300
C893        C  0.90078564  0.07414466  0.44843862    -0.14800
C894        C  0.88657059  0.10085280  0.43278071    -0.14800
C895        C  0.92201960  0.13616881  0.42008876     0.07300
C896        C  0.97189532  0.14314090  0.42169028    -0.14800
H897        H  0.02506123  0.12326513  0.43906515     0.11300
H898        H  0.87262681  0.04835839  0.45963556     0.11300
H899        H  0.84791565  0.09483311  0.43234394     0.11300
H900        H  0.99999005  0.16993903  0.41184177     0.11300
C901        C  0.77953159  0.40120092  0.59943973    -0.14800
C902        C  0.75070504  0.36403654  0.58026617     0.07300
C903        C  0.77091419  0.35192580  0.54965690    -0.14800
C904        C  0.81774327  0.37687807  0.53803091    -0.14800
C905        C  0.84477629  0.41484438  0.55614114     0.07300
C906        C  0.82554511  0.42642621  0.58725983    -0.14800
H907        H  0.76692717  0.41127376  0.62388244     0.11300
H908        H  0.75022060  0.32385043  0.53366738     0.11300
H909        H  0.83165898  0.36736222  0.51386303     0.11300
H910        H  0.84605492  0.45541907  0.60208733     0.11300
C911        C  0.53477239  0.17081186  0.55879388    -0.14800
C912        C  0.56411912  0.15008023  0.56229647     0.07300
C913        C  0.61121156  0.17059745  0.57881471    -0.14800
C914        C  0.62868319  0.21115435  0.59126615    -0.14800
C915        C  0.60053792  0.23271034  0.58593572     0.07300
C916        C  0.55267231  0.21151026  0.57030592    -0.14800
H917        H  0.49789033  0.15561026  0.54655381     0.11300
H918        H  0.63419700  0.15520438  0.58251543     0.11300
H919        H  0.66509392  0.22614827  0.60425348     0.11300
H920        H  0.52835156  0.22565947  0.56704769     0.11300
C921        C  0.62359636  0.43711491  0.55822708    -0.14800
C922        C  0.57346159  0.42622204  0.55030824     0.07300
C923        C  0.53833615  0.38886861  0.55981024    -0.14800
C924        C  0.55323268  0.36219089  0.57489758    -0.14800
C925        C  0.60361419  0.37229633  0.58112733     0.07300
C926        C  0.63846124  0.41056870  0.57348739    -0.14800
H927        H  0.65162095  0.46549082  0.55103935     0.11300
H928        H  0.49941870  0.37924277  0.55368604     0.11300
H929        H  0.52528759  0.33325925  0.58089940     0.11300
H930        H  0.67759776  0.41939269  0.57731848     0.11300
C931        C  0.96298688  0.33728377  0.92016466    -0.14800
C932        C  0.91922863  0.31730737  0.89869337     0.07300
C933        C  0.89548227  0.33961014  0.88678769    -0.14800
C934        C  0.91548356  0.38100270  0.89524266    -0.14800
C935        C  0.95981775  0.40148986  0.91642230     0.07300
C936        C  0.98295736  0.37872966  0.92882496    -0.14800
H937        H  0.98241175  0.32099958  0.92979792     0.11300
H938        H  0.86208152  0.32525772  0.86987486     0.11300
H939        H  0.89573889  0.39596217  0.88405400     0.11300
H940        H  0.51447815  0.39247089  0.94784665     0.11300
C941        C  0.61066807  0.07472137  0.89576719    -0.14800
C942        C  0.60548920  0.03785985  0.90696231     0.07300
C943        C  0.64529649  0.02758176  0.90278749    -0.14800
C944        C  0.68859113  0.05292363  0.88666357    -0.14800
C945        C  0.69265166  0.08872301  0.87363074     0.07300
C946        C  0.65351024  0.09965763  0.87899863    -0.14800
H947        H  0.58060689  0.08345141  0.89833201     0.11300
H948        H  0.64261907  0.99961439  0.91149167     0.11300
H949        H  0.71787281  0.04343902  0.88268326     0.11300
H950        H  0.65540173  0.12695198  0.86921280     0.11300
C951        C  0.94312503  0.09714074  0.92739673    -0.14800
C952        C  0.91381632  0.08787338  0.89554568     0.07300
C953        C  0.90330791  0.05215335  0.87410260    -0.14800
C954        C  0.92381032  0.02685809  0.88341428    -0.14800
C955        C  0.95402566  0.03629852  0.91495034     0.07300
C956        C  0.96266996  0.07128837  0.93725728    -0.14800
H957        H  0.95128394  0.12456452  0.94441948     0.11300
H958        H  0.88134815  0.04481782  0.84915668     0.11300
H959        H  0.91734630  0.50104608  0.86474085     0.11300
H960        H  0.98455102  0.07885753  0.96222443     0.11300
C961        C  0.77545044  0.29090671  0.79325186    -0.14800
C962        C  0.76400416  0.25434200  0.77300690     0.07300
C963        C  0.73230124  0.24345684  0.74222451    -0.14800
C964        C  0.71279917  0.26907647  0.73152729    -0.14800
C965        C  0.72386904  0.30569294  0.75187811     0.07300
C966        C  0.75495467  0.31603937  0.78315556    -0.14800
H967        H  0.79869014  0.29932333  0.81764070     0.11300
H968        H  0.72275474  0.21511931  0.72634300     0.11300
H969        H  0.68958876  0.26025754  0.70714220     0.11300
H970        H  0.76287145  0.34320136  0.80041959     0.11300
C971        C  0.57515168  0.27257220  0.77684145    -0.14800
C972        C  0.57667647  0.30633913  0.76130611     0.07300
C973        C  0.53441323  0.31351708  0.76200536    -0.14800
C974        C  0.99167664  0.28782730  0.77867890    -0.14800
C975        C  0.99047128  0.25462497  0.79524161     0.07300
C976        C  0.03267661  0.24712677  0.79382429    -0.14800
H977        H  0.60741047  0.26651997  0.77687798     0.11300
H978        H  0.53461169  0.33921751  0.75004536     0.11300
H979        H  0.96018040  0.29486623  0.77965628     0.11300
H980        H  0.03335631  0.22216433  0.80659623     0.11300
C981        C  0.76532855  0.46195010  0.77032174    -0.14800
C982        C  0.72106367  0.44182862  0.74896538     0.07300
C983        C  0.69843145  0.46503815  0.73673557    -0.14800
C984        C  0.71886290  0.50650184  0.74556136    -0.14800
C985        C  0.76243159  0.02607602  0.76708022     0.07300
C986        C  0.78574511  0.50340312  0.77904863    -0.14800
H987        H  0.78449328  0.44655745  0.78158627     0.11300
H988        H  0.66445130  0.45088670  0.72042486     0.11300
H989        H  0.69955338  0.02297701  0.73600433     0.11300
H990        H  0.81897235  0.51742470  0.79616938     0.11300
O991        O  0.92763680  0.65430291  0.88907330    -0.82400
O992        O  0.82319574  0.73873922  0.80116088    -0.67100
O993        O  0.85786672  0.68014184  0.86631291    -1.13700
C994        C  0.78041170  0.56916027  0.78038785     1.04500
O995        O  0.75159909  0.68902041  0.78083718    -0.80300
O996        O  0.72623465  0.63038597  0.82612866    -0.67800
Ni997      Ni  0.92389504  0.70430396  0.88744844     1.34900
C998        C  0.73401993  0.61132815  0.85037117     0.83300
O999        O  0.86045026  0.75661311  0.86794560    -0.80800
O1000       O  0.92942711  0.75802124  0.89124025    -0.91100
C1001       C  0.78114747  0.72587027  0.78531756     0.82800
O1002       O  0.95497777  0.71212114  0.84188348    -0.69300
O1003       O  0.75228239  0.58593312  0.77499040    -0.88600
C1004       C  0.94817958  0.73155030  0.81746200     0.83700
C1005       C  0.90150424  0.77483568  0.88546774     1.05200
H1006       H  0.84545240  0.66913405  0.78060530     0.37000
O1007       O  0.82314740  0.66352081  0.80041189    -1.11200
O1008       O  0.77480398  0.60861133  0.85359536    -0.67900
Ni1009     Ni  0.83950812  0.63323943  0.83258211     1.26300
O1010       O  0.90744370  0.73434679  0.81338878    -0.68100
O1011       O  0.82135424  0.58730951  0.79813617    -0.80400
C1012       C  0.89858172  0.61748849  0.88276802     0.83000
O1013       O  0.85824287  0.60491905  0.86476748    -0.67600
Ni1014     Ni  0.75660973  0.63934901  0.78036644     1.27400
Ni1015     Ni  0.84205932  0.71053638  0.83382934     1.26100
H1016       H  0.83505042  0.67439380  0.88580289     0.37600
C1017       C  0.69672227  0.89629673  0.73844659     0.85000
C1018       C  0.72592725  0.87331351  0.74947968    -0.55200
C1019       C  0.70313451  0.83303949  0.74042656     0.07900
C1020       C  0.65339568  0.81923114  0.71972974     0.18900
C1021       C  0.68767645  0.88530297  0.69747381    -0.56000
C1022       C  0.66486412  0.84500966  0.68707511     0.08000
C1023       C  0.64544778  0.87452754  0.75459114    -0.55500
C1024       C  0.62300960  0.83407401  0.74511530     0.08600
H1025       H  0.76219224  0.88701752  0.76240239     0.13100
H1026       H  0.63440987  0.78651388  0.71282230    -0.01100
H1027       H  0.69904887  0.90830118  0.67886420     0.13400
H1028       H  0.62947919  0.88955356  0.77320335     0.13200
C1029       C  0.98442904  0.94725663  0.92665174     0.85000
C1030       C  0.53597620  0.96929015  0.91176589    -0.55200
C1031       C  0.55770030  0.50963514  0.92140087     0.07900
C1032       C  0.52562874  0.52394208  0.94560896     0.18900
C1033       C  0.99130197  0.95810166  0.96777733    -0.56000
C1034       C  0.51256959  0.49817222  0.97816147     0.08000
C1035       C  0.95503826  0.96964936  0.91460666    -0.55500
C1036       C  0.97635932  0.50964227  0.92400721     0.08600
H1037       H  0.55300382  0.95443309  0.89396379     0.13100
H1038       H  0.54372862  0.55662321  0.95260647    -0.01100
H1039       H  0.97882790  0.93515761  0.98646069     0.13400
H1040       H  0.91865629  0.95544301  0.90177000     0.13200
O1041       O  0.63106221  0.52892836  0.45740488    -0.82400
O1042       O  0.92043231  0.93328459  0.52517849    -0.67100
O1043       O  0.52930979  0.99768743  0.46963894    -1.13700
C1044       C  0.54400340  0.60693387  0.54933383     1.04500
O1045       O  0.89750736  0.98065492  0.54609289    -0.80300
O1046       O  0.93563032  0.53524556  0.49533420    -0.67800
Ni1047     Ni  0.57680611  0.97712203  0.45732826     1.34900
C1048       C  0.96712297  0.55846435  0.47481970     0.83300
O1049       O  0.95488943  0.91877340  0.46206320    -0.80800
O1050       O  0.52960867  0.92193072  0.45254043    -0.91100
C1051       C  0.89048683  0.94436363  0.54153222     0.82800
O1052       O  0.59055447  0.97332878  0.50669064    -0.69300
O1053       O  0.49743682  0.58761935  0.54821894    -0.88600
C1054       C  0.55844406  0.94999397  0.52673256     0.83700
C1055       C  0.98300107  0.90265672  0.45118136     1.05200
H1056       H  0.51124969  0.50685979  0.55334677     0.37000
O1057       O  0.49798819  0.51162609  0.53149387    -1.11200
O1058       O  0.51270952  0.56548395  0.47677233    -0.67900
Ni1059     Ni  0.55149088  0.54473932  0.50347167     1.26300
O1060       O  0.51292241  0.94307499  0.52415676    -0.68100
O1061       O  0.57206031  0.59079790  0.53845106    -0.80400
C1062       C  0.63720290  0.56506994  0.46055481     0.83000
O1063       O  0.60607524  0.57597966  0.47523379    -0.67600
Ni1064     Ni  0.95083474  0.53242011  0.54459780     1.27400
Ni1065     Ni  0.97541276  0.96462776  0.49730954     1.26100
H1066       H  0.51640908  0.00233365  0.44756047     0.37600
C1067       C  0.90405416  0.73138851  0.40545006     0.85000
C1068       C  0.85217194  0.71061111  0.42025697    -0.55200
C1069       C  0.82785472  0.67063307  0.40987756     0.07900
C1070       C  0.85861940  0.65489972  0.38533429     0.18900
C1071       C  0.93111984  0.70677726  0.41763194    -0.56000
C1072       C  0.90695828  0.66655479  0.40734879     0.08000
C1073       C  0.89690200  0.72150339  0.36439632    -0.55500
C1074       C  0.87332126  0.68151461  0.35324047     0.08600
H1075       H  0.83603398  0.72685097  0.43719205     0.13100
H1076       H  0.83998380  0.62237652  0.37757115    -0.01100
H1077       H  0.96444341  0.71885056  0.43462198     0.13400
H1078       H  0.91006361  0.74503807  0.34631010     0.13200
C1079       C  0.62333111  0.77780187  0.59628803     0.85000
C1080       C  0.63019423  0.78821261  0.63742598    -0.55200
C1081       C  0.65373671  0.82835511  0.64809844     0.07900
C1082       C  0.66835852  0.85437338  0.61564338     0.18900
C1083       C  0.59644526  0.80212236  0.58328140    -0.56000
C1084       C  0.62014390  0.84240007  0.59332690     0.08000
C1085       C  0.67535573  0.79846645  0.58165548    -0.55500
C1086       C  0.69960666  0.83851587  0.59173454     0.08600
H1087       H  0.61724682  0.76511581  0.65599768     0.13100
H1088       H  0.68661494  0.88681478  0.62321200    -0.01100
H1089       H  0.56354609  0.78966091  0.56583076     0.13400
H1090       H  0.69155617  0.78201210  0.56512252     0.13200
O1091       O  0.78312972  0.82464033  0.20977988    -0.82400
O1092       O  0.67164033  0.90714308  0.13204197    -0.67100
O1093       O  0.70997464  0.85153574  0.19783077    -1.13700
C1094       C  0.62780051  0.73692397  0.11566163     1.04500
O1095       O  0.59937376  0.85735201  0.11334164    -0.80300
O1096       O  0.57261579  0.79620677  0.15677866    -0.67800
Ni1097     Ni  0.77694028  0.87426463  0.21614661     1.34900
C1098       C  0.58155958  0.78102039  0.18379114     0.83300
O1099       O  0.71352383  0.92792087  0.19749055    -0.80800
O1100       O  0.77878266  0.92669685  0.22549976    -0.91100
C1101       C  0.62922038  0.89423228  0.11695657     0.82800
O1102       O  0.80815130  0.88808255  0.17127282    -0.69300
O1103       O  0.60284089  0.75499887  0.10595773    -0.88600
C1104       C  0.79784472  0.90400232  0.14556640     0.83700
C1105       C  0.75239220  0.94449975  0.21789241     1.05200
H1106       H  0.69410247  0.83569814  0.11375088     0.37000
O1107       O  0.67157290  0.83147035  0.13342598    -1.11200
O1108       O  0.62374367  0.78166019  0.19014356    -0.67900
Ni1109     Ni  0.68756196  0.80234765  0.16769003     1.26300
O1110       O  0.75550084  0.90368769  0.14130400    -0.68100
O1111       O  0.66566906  0.75355521  0.13687458    -0.80400
C1112       C  0.75190936  0.78884266  0.21291142     0.83000
O1113       O  0.70712701  0.77650315  0.20263865    -0.67600
Ni1114     Ni  0.60567534  0.80781961  0.11217478     1.27400
Ni1115     Ni  0.69244640  0.88038094  0.16484573     1.26100
H1116       H  0.68910611  0.84787333  0.21836752     0.37600
C1117       C  0.54691711  0.56606806  0.06860933     0.85000
C1118       C  0.57600117  0.54371844  0.08147934    -0.55200
C1119       C  0.55441928  0.00348414  0.07189641     0.07900
C1120       C  0.00608995  0.98940535  0.04954111     0.18900
C1121       C  0.54155334  0.55529711  0.02740164    -0.56000
C1122       C  0.51995233  0.51501860  0.01696874     0.08000
C1123       C  0.99433250  0.54383159  0.08247241    -0.55500
C1124       C  0.97325720  0.00374872  0.07291384     0.08600
H1125       H  0.61170998  0.55850864  0.09557428     0.13100
H1126       H  0.98799119  0.95673072  0.04248957    -0.01100
H1127       H  0.55525593  0.57805920  0.00860717     0.13400
H1128       H  0.97689838  0.55869096  0.09986902     0.13200
C1129       C  0.83371531  0.61631236  0.26150695     0.85000
C1130       C  0.88569848  0.63849489  0.24660186    -0.55200
C1131       C  0.90794984  0.67858219  0.25725115     0.07900
C1132       C  0.87644240  0.69273462  0.28222237     0.18900
C1133       C  0.84089406  0.62593130  0.30267614    -0.56000
C1134       C  0.86331502  0.66587515  0.31404825     0.08000
C1135       C  0.80547755  0.63988799  0.24958865    -0.55500
C1136       C  0.82737834  0.67991778  0.26067129     0.08600
H1137       H  0.90229436  0.62412281  0.22783765     0.13100
H1138       H  0.89538039  0.72508025  0.29041071    -0.01100
H1139       H  0.82881429  0.60236502  0.32076202     0.13400
H1140       H  0.77273380  0.62705065  0.23208529     0.13200
C1141       C  0.87766942  0.91504970  0.11638418    -0.14800
C1142       C  0.83840243  0.92591766  0.12131399     0.07300
C1143       C  0.84214528  0.96121556  0.10739500    -0.14800
C1144       C  0.88536859  0.98613838  0.09080956    -0.14800
C1145       C  0.92528374  0.97585334  0.08713977     0.07300
C1146       C  0.92032728  0.93948773  0.09923310    -0.14800
H1147       H  0.87608137  0.88820973  0.12696081     0.11300
H1148       H  0.81283497  0.97070062  0.11115668     0.11300
H1149       H  0.88801044  0.01385466  0.08150549     0.11300
H1150       H  0.95051697  0.93086764  0.09719697     0.11300
C1151       C  0.55850529  0.63708398  0.06088044    -0.14800
C1152       C  0.56985225  0.61095993  0.08037863     0.07300
C1153       C  0.59964726  0.62700607  0.11236574    -0.14800
C1154       C  0.62012373  0.66809535  0.12299219    -0.14800
C1155       C  0.61007484  0.69410632  0.10263805     0.07300
C1156       C  0.57866459  0.67809216  0.07167290    -0.14800
H1157       H  0.03541180  0.62633704  0.03630606     0.11300
H1158       H  0.60643395  0.60795554  0.12992485     0.11300
H1159       H  0.64240546  0.67930813  0.14787999     0.11300
H1160       H  0.56914809  0.69725873  0.05594610     0.11300
C1161       C  0.62296730  0.95900886  0.12538021    -0.14800
C1162       C  0.61282709  0.92314049  0.10418508     0.07300
C1163       C  0.58499874  0.91430462  0.07164135    -0.14800
C1164       C  0.56723513  0.94094210  0.06055566    -0.14800
C1165       C  0.57592496  0.97634458  0.08233743     0.07300
C1166       C  0.60423895  0.98515617  0.11478592    -0.14800
H1167       H  0.64386534  0.96609327  0.15081420     0.11300
H1168       H  0.57720790  0.88686671  0.05475053     0.11300
H1169       H  0.54678561  0.93371181  0.03495606     0.11300
H1170       H  0.61021825  0.51157957  0.13293341     0.11300
C1171       C  0.81980102  0.77504620  0.23746067    -0.14800
C1172       C  0.76974253  0.76107436  0.22714234     0.07300
C1173       C  0.73789662  0.72070249  0.23013699    -0.14800
C1174       C  0.75621326  0.69462842  0.24197840    -0.14800
C1175       C  0.80688108  0.70825700  0.25083973     0.07300
C1176       C  0.83803469  0.74911758  0.24924989    -0.14800
H1177       H  0.84538630  0.80611125  0.23592169     0.11300
H1178       H  0.69895770  0.70914342  0.22297028     0.11300
H1179       H  0.73043971  0.66379028  0.24410628     0.11300
H1180       H  0.87696744  0.76147608  0.25608851     0.11300
C1181       C  0.76145851  0.54967810  0.23606933    -0.14800
C1182       C  0.81002598  0.57107480  0.25098787     0.07300
C1183       C  0.83689038  0.54918752  0.25804992    -0.14800
C1184       C  0.81724640  0.50792278  0.24878497    -0.14800
C1185       C  0.76995612  0.98719647  0.23184818     0.07300
C1186       C  0.74188447  0.50833665  0.22661068    -0.14800
H1187       H  0.73766577  0.56401560  0.23173991     0.11300
H1188       H  0.87370410  0.56428976  0.27038895     0.11300
H1189       H  0.83942960  0.99256706  0.25438774     0.11300
H1190       H  0.70499827  0.49312185  0.21440854     0.11300
C1191       C  0.54190217  0.73108289  0.22979288    -0.14800
C1192       C  0.53965013  0.75895873  0.20709246     0.07300
C1193       C  0.49436908  0.76124100  0.20285501    -0.14800
C1194       C  0.95241632  0.73582189  0.22028325    -0.14800
C1195       C  0.95406607  0.70682366  0.24143893     0.07300
C1196       C  0.99905422  0.70433332  0.24603896    -0.14800
H1197       H  0.57589968  0.72803172  0.23328842     0.11300
H1198       H  0.49088049  0.78183791  0.18528873     0.11300
H1199       H  0.91789522  0.73745060  0.21536279     0.11300
H1200       H  0.00111303  0.68205026  0.26216979     0.11300
C1201       C  0.75925993  0.65571701  0.45447953    -0.14800
C1202       C  0.77727467  0.64509204  0.42199466     0.07300
C1203       C  0.74671429  0.60942446  0.40137942    -0.14800
C1204       C  0.70056624  0.58429916  0.41358426    -0.14800
C1205       C  0.68316976  0.59459916  0.44623745     0.07300
C1206       C  0.71241640  0.63093415  0.46623317    -0.13900
H1207       H  0.78176329  0.68250834  0.47159779     0.11300
H1208       H  0.75819899  0.60063579  0.37577604     0.11300
H1209       H  0.67844161  0.55643093  0.39757042     0.11300
H1210       H  0.70008675  0.63919191  0.49175960     0.11300
C1211       C  0.99096401  0.83839478  0.44476316    -0.14800
C1212       C  0.96274857  0.85949444  0.43865613     0.07300
C1213       C  0.91685600  0.83913299  0.42029949    -0.14800
C1214       C  0.89951286  0.79835236  0.40857688    -0.14800
C1215       C  0.92671755  0.77658057  0.41610242     0.07300
C1216       C  0.97325867  0.79757524  0.43380509    -0.14800
H1217       H  0.52662718  0.85338863  0.45891294     0.11300
H1218       H  0.89474670  0.85478442  0.41467853     0.11300
H1219       H  0.86399775  0.78337322  0.39425626     0.11300
H1220       H  0.99661149  0.78315109  0.43936536     0.11300
C1221       C  0.98666325  0.61659251  0.43733809    -0.14800
C1222       C  0.95134122  0.58196495  0.45139579     0.07300
C1223       C  0.90121795  0.57406007  0.44799710    -0.14800
C1224       C  0.88698318  0.60078726  0.43240114    -0.14800
C1225       C  0.92244641  0.63637574  0.42013970     0.07300
C1226       C  0.97240476  0.64362391  0.42213754    -0.14800
H1227       H  0.02563383  0.62395543  0.43980611     0.11300
H1228       H  0.87300880  0.54803256  0.45884407     0.11300
H1229       H  0.84825984  0.59453673  0.43168815     0.11300
H1230       H  0.00053255  0.67063008  0.41263050     0.11300
C1231       C  0.77938159  0.90113820  0.59935938    -0.14800
C1232       C  0.75062749  0.86396632  0.58016976     0.07300
C1233       C  0.77091509  0.85189074  0.54958941    -0.14800
C1234       C  0.81776445  0.87687790  0.53801551    -0.14800
C1235       C  0.84474498  0.91483961  0.55615660     0.07300
C1236       C  0.82541358  0.92639426  0.58723444    -0.14800
H1237       H  0.76671336  0.91119118  0.62378059     0.11300
H1238       H  0.75026775  0.82381171  0.53359042     0.11300
H1239       H  0.83174610  0.86738561  0.51387023     0.11300
H1240       H  0.84586391  0.95538543  0.60208089     0.11300
C1241       C  0.53504473  0.67076072  0.55815846    -0.14800
C1242       C  0.56423241  0.64998721  0.56213450     0.07300
C1243       C  0.61108145  0.67046212  0.57903938    -0.14800
C1244       C  0.62846440  0.71103060  0.59143092    -0.14800
C1245       C  0.60046627  0.73261285  0.58570016     0.07300
C1246       C  0.55285056  0.71145445  0.56963573    -0.14800
H1247       H  0.49836131  0.65558611  0.54557975     0.11300
H1248       H  0.63392596  0.65502570  0.58309157     0.11300
H1249       H  0.66469370  0.72601502  0.60470283     0.11300
H1250       H  0.52864182  0.72561878  0.56598431     0.11300
C1251       C  0.62355500  0.93695989  0.55789636    -0.14800
C1252       C  0.57338321  0.92621903  0.55027577     0.07300
C1253       C  0.53824166  0.88894269  0.55993174    -0.14800
C1254       C  0.55314240  0.86220248  0.57489961    -0.14800
C1255       C  0.60353647  0.87218407  0.58085873     0.07300
C1256       C  0.63841930  0.91035743  0.57303535    -0.14800
H1257       H  0.65159571  0.96525838  0.55056790     0.11300
H1258       H  0.49929354  0.87942756  0.55402920     0.11300
H1259       H  0.52519443  0.83332947  0.58104010     0.11300
H1260       H  0.67755883  0.91905289  0.57665577     0.11300
C1261       C  0.96089503  0.83698244  0.92199437    -0.14800
C1262       C  0.91964617  0.81789645  0.89792912     0.07300
C1263       C  0.89930918  0.84116883  0.88303167    -0.14800
C1264       C  0.91995180  0.88258452  0.89152245    -0.14800
C1265       C  0.96108668  0.90202413  0.91600019     0.07300
C1266       C  0.98141065  0.87843447  0.93073896    -0.14800
H1267       H  0.97788261  0.81994483  0.93370779     0.11300
H1268       H  0.86846784  0.82757635  0.86363827     0.11300
H1269       H  0.90389218  0.89863219  0.87749662     0.11300
H1270       H  0.51468926  0.89257099  0.94773653     0.11300
C1271       C  0.61057676  0.57465956  0.89579203    -0.14800
C1272       C  0.60540163  0.53776522  0.90690488     0.07300
C1273       C  0.64518634  0.52747272  0.90263635    -0.14800
C1274       C  0.68847328  0.55285604  0.88653290    -0.14800
C1275       C  0.69254181  0.58870847  0.87361495     0.07300
C1276       C  0.65340799  0.59963538  0.87904241    -0.14800
H1277       H  0.58052535  0.58339556  0.89841226     0.11300
H1278       H  0.64250479  0.49947285  0.91126148     0.11300
H1279       H  0.71774385  0.54337051  0.88247611     0.11300
H1280       H  0.65530614  0.62696213  0.86932570     0.11300
C1281       C  0.94341865  0.59740242  0.92727833    -0.14800
C1282       C  0.91413814  0.58828975  0.89543532     0.07300
C1283       C  0.90365715  0.55265756  0.87385187    -0.14800
C1284       C  0.92401716  0.52723372  0.88308189    -0.14800
C1285       C  0.95404378  0.53643144  0.91469574     0.07300
C1286       C  0.96278627  0.57140190  0.93707399    -0.14800
H1287       H  0.95159713  0.62477289  0.94438854     0.11300
H1288       H  0.88176306  0.54546304  0.84888818     0.11300
H1289       H  0.91716551  0.00059890  0.86517546     0.11300
H1290       H  0.98454902  0.57880977  0.96208347     0.11300
C1291       C  0.77582805  0.79100250  0.79264354    -0.14800
C1292       C  0.76406885  0.75429946  0.77257000     0.07300
C1293       C  0.73214854  0.74329896  0.74190742    -0.14800
C1294       C  0.71272496  0.76895239  0.73116183    -0.14800
C1295       C  0.72407414  0.80570184  0.75136932     0.07300
C1296       C  0.75541248  0.81616671  0.78251587    -0.14800
H1297       H  0.79921702  0.79949335  0.81695405     0.11300
H1298       H  0.72236988  0.71484767  0.72616597     0.11300
H1299       H  0.68932231  0.76003428  0.70687206     0.11300
H1300       H  0.76355278  0.84342693  0.79968839     0.11300
C1301       C  0.57529913  0.77242964  0.77682494    -0.14800
C1302       C  0.57680236  0.80619300  0.76128836     0.07300
C1303       C  0.53453030  0.81335606  0.76201271    -0.14800
C1304       C  0.99165542  0.78752015  0.77801468    -0.14800
C1305       C  0.99065629  0.75465239  0.79504731     0.07300
C1306       C  0.03305660  0.74741528  0.79406643    -0.14800
H1307       H  0.60756542  0.76638580  0.77683903     0.11300
H1308       H  0.53470806  0.83905139  0.75005635     0.11300
H1309       H  0.95998625  0.79433796  0.77862649     0.11300
H1310       H  0.03387868  0.72270192  0.80718557     0.11300
C1311       C  0.76527888  0.96186548  0.77007226    -0.14800
C1312       C  0.72098595  0.94175497  0.74874253     0.07300
C1313       C  0.69829091  0.96496804  0.73661998    -0.14800
C1314       C  0.71871776  0.00642795  0.74549245    -0.14800
C1315       C  0.76251467  0.52615823  0.76721415     0.07300
C1316       C  0.78570076  0.00331437  0.77883180    -0.14800
H1317       H  0.78444752  0.94646024  0.78130984     0.11300
H1318       H  0.66426958  0.95082405  0.72035623     0.11300
H1319       H  0.69973484  0.52304330  0.73599638     0.11300
H1320       H  0.81895744  0.01732621  0.79592385     0.11300
loop_ 
_geom_bond_atom_site_label_1 
_geom_bond_atom_site_label_2 
_geom_bond_distance 
_geom_bond_site_symmetry_2 
_ccdc_geom_bond_type 
O1           Ni7   1.912       .  S
O1           C22   1.268       .  A
O2          Ni25   1.901       .  S
O2           C11   1.268       .  A
O3           Ni7   1.927       .  S
O3          Ni25   1.908       .  S
O3          Ni19   1.927       .  S
O3           H26   0.966       .  S
C4           O21   1.272       .  A
C4           O13   1.270       .  A
C4          C325   1.486       .  S
O5          Ni24   1.911       .  S
O5           C11   1.267       .  A
O6          Ni24   1.909       .  S
O6            C8   1.270       .  A
Ni7          O10   1.921       .  S
Ni7          O12   1.910       .  S
C8           O18   1.277       .  A
C8          C285   1.488       .  S
O9          Ni25   1.913       .  S
O9           C15   1.271       .  A
O10          C15   1.269       .  A
C11         C302   1.466       .  S
O12          C14   1.273       .  A
O13         Ni24   1.923       .  S
C14          O20   1.281       .  A
C14         C315   1.492       .  S
C15         C272   1.482       .  S
H16          O17   0.966       .  S
O17         Ni25   1.923       .  S
O17         Ni19   1.906       .  S
O17         Ni24   1.925       .  S
O18         Ni19   1.949       .  S
Ni19         O23   1.889       .  S
Ni19         O21   1.918       .  S
O20         Ni25   1.955       .  S
C22          O23   1.264       .  A
C22         C292   1.461       .  S
C27          C28   1.538       .  S
C27          C33   1.545       .  S
C27          C31   1.534       .  S
C27         C322   1.537       .  S
C28          H35   1.077       .  S
C28          C29   1.362       .  D
C29          C30   1.538       .  S
C29         C305   1.486       .  S
C30          C34   1.536       .  S
C30          C32   1.553       .  S
C30          H36   1.104       .  S
C31          H37   1.081       .  S
C31          C32   1.371       .  D
C32          C91   1.504       .  S
C33          H38   1.086       .  S
C33          C34   1.370       .  D
C34         C312   1.490       .  S
C39          C45   1.537       .  S
C39          C43   1.536       .  S
C39         C700   1.543       .  S
C39         C275   1.532       .  S
C40         C699   1.544   1_455  S
C40          H47   1.086       .  S
C40         C371   1.370       .  D
C41          C42   1.538       .  S
C41         C370   1.370   1_545  D
C41         C282   1.494       .  S
C42          C44   1.548   1_545  S
C42         C706   1.534   1_455  S
C42          H48   1.103       .  S
C43          H49   1.081       .  S
C43        C1034   1.371       .  D
C44        C1033   1.371   1_455  D
C44         C132   1.498   1_566  S
C45          H50   1.078       .  S
C45         C376   1.360       .  D
C46         C702   1.534       .  S
C46         C375   1.360   1_545  D
C46         C295   1.478       .  S
O51        Ni387   1.913   1_545  S
O51          C72   1.268       .  A
O52         Ni75   1.920       .  S
O52          C61   1.271       .  A
O53         Ni57   1.921       .  S
O53        Ni735   1.918   1_455  S
O53        Ni399   1.929       .  S
O53          H76   0.966       .  S
C54          O71   1.272       .  A
C54          O63   1.266   1_455  A
C54         C252   1.480       .  S
O55        Ni404   1.907       .  S
O55          C61   1.267       .  A
O56         Ni74   1.908       .  S
O56          C58   1.273       .  A
Ni57         O60   1.920       .  S
Ni57         O62   1.909       .  S
Ni57        O381   1.913       .  S
C58         O728   1.281       .  A
C58         C232   1.492       .  S
O59         Ni75   1.928       .  S
O59          C65   1.273       .  A
O60         C725   1.269   1_455  A
C61         C245   1.477       .  S
O62          C64   1.272       .  A
O63        Ni734   1.915       .  S
C64          O70   1.279       .  A
C64         C262   1.488       .  S
C65         O720   1.269       .  A
C65         C222   1.481       .  S
H66          O67   0.966   1_455  S
O67         Ni69   1.918   1_655  S
O67       Ni1065   1.934   1_545  S
O67        Ni734   1.922       .  S
O68         Ni69   1.958       .  S
O68         C718   1.282   1_455  A
Ni69         O73   1.920       .  S
Ni69         O71   1.927       .  S
Ni69        O383   1.929   1_545  S
O70        Ni735   1.953   1_455  S
C72          O73   1.271       .  A
C72         C215   1.476       .  S
Ni74        O385   1.907   1_545  S
Ni74        O723   1.915       .  S
Ni74        O727   1.921       .  S
Ni75        O730   1.953       .  S
Ni75        O713   1.918       .  S
Ni75       O1057   1.934       .  S
C77          C78   1.534       .  S
C77          C83   1.530       .  S
C77          C81   1.551       .  S
C77         C225   1.531       .  S
C78          H85   1.085       .  S
C78          C79   1.363       .  D
C79          C80   1.545       .  S
C79         C212   1.495       .  S
C80          C84   1.551       .  S
C80          C82   1.539       .  S
C80          H86   1.103       .  S
C81          H87   1.082       .  S
C81          C82   1.370       .  D
C82         C235   1.494       .  S
C83          H88   1.081       .  S
C83          C84   1.368       .  D
C84         C144   1.501       .  S
C89          C90   1.535       .  S
C89          C95   1.535       .  S
C89          C93   1.549       .  S
C89         C255   1.530       .  S
C90          H97   1.083       .  S
C90          C91   1.369       .  D
C91          C92   1.550       .  S
C92          C96   1.547       .  S
C92          C94   1.540       .  S
C92          H98   1.098       .  S
C93          H99   1.082       .  S
C93          C94   1.369       .  D
C94         C265   1.498       .  S
C95         H100   1.084       .  S
C95          C96   1.363       .  D
C96         C242   1.498       .  S
O101       Ni107   1.923       .  S
O101        C122   1.270       .  A
O102       Ni125   1.897       .  S
O102        C111   1.265       .  A
O103       Ni107   1.916       .  S
O103       Ni125   1.904       .  S
O103       Ni119   1.909       .  S
O103        H126   0.965       .  S
C104        O121   1.271       .  A
C104        O113   1.270       .  A
C104        C165   1.480       .  S
O105       Ni124   1.923       .  S
O105        C111   1.269       .  A
O106       Ni124   1.909       .  S
O106        C108   1.273       .  A
Ni107       O110   1.924       .  S
Ni107       O112   1.905       .  S
C108        O118   1.278       .  A
C108        C202   1.492       .  S
O109       Ni125   1.915       .  S
O109        C115   1.275       .  A
O110        C115   1.275       .  A
C111        C172   1.468       .  S
O112        C114   1.268       .  A
O113       Ni124   1.919       .  S
C114        O120   1.276       .  A
C114        C152   1.489       .  S
C115        C195   1.484       .  S
H116        O117   0.969       .  S
O117       Ni125   1.929       .  S
O117       Ni119   1.922       .  S
O117       Ni124   1.925       .  S
O118       Ni119   1.946       .  S
Ni119       O123   1.908       .  S
Ni119       O121   1.912       .  S
O120       Ni125   1.950       .  S
C122        O123   1.268       .  A
C122        C182   1.480       .  S
C127        C128   1.539       .  S
C127        C131   1.538       .  S
C127        C793   1.538   1_455  S
C127        C162   1.529       .  S
C128        H135   1.083       .  S
C128        C459   1.364       .  D
C129        C790   1.538       .  S
C129        C458   1.364       .  D
C129        C175   1.485       .  S
C130        C134   1.540       .  S
C130        C789   1.537       .  S
C130       C1122   1.548       .  S
C130        H136   1.103       .  S
C131        H137   1.081       .  S
C131        C132   1.371       .  D
C132       C1120   1.548   1_545  S
C133        C787   1.537       .  S
C133        H138   1.086       .  S
C133        C464   1.367       .  D
C134        C463   1.367       .  D
C134        C155   1.494       .  S
C139        C140   1.544       .  S
C139        C145   1.543       .  S
C139        C143   1.534       .  S
C139        C192   1.531       .  S
C140        H147   1.086       .  S
C140        C141   1.366       .  D
C141        C142   1.537       .  S
C141        C205   1.486       .  S
C142        C146   1.541       .  S
C142        C144   1.549       .  S
C142        H148   1.101       .  S
C143        H149   1.082       .  S
C143        C144   1.368       .  D
C145        H150   1.079       .  S
C145        C146   1.367       .  D
C146        C185   1.495       .  S
C151        C152   1.406       .  A
C151        C156   1.400       .  A
C151        H157   1.083       .  S
C152        C153   1.408       .  A
C153        C154   1.406       .  A
C153        H158   1.083       .  S
C154        C155   1.407       .  A
C154        H159   1.083       .  S
C155        C156   1.405       .  A
C156        H160   1.083       .  S
C161        C162   1.408       .  A
C161        C166   1.397       .  A
C161        H827   1.082       .  S
C162        C163   1.412       .  A
C163        C164   1.398       .  A
C163        H168   1.080       .  S
C164        C165   1.402       .  A
C164        H169   1.083       .  S
C165        C166   1.405       .  A
C166        H170   1.083       .  S
H167        C821   1.082       .  S
C171        C172   1.400       .  A
C171        C176   1.395       .  A
C171        H177   1.084       .  S
C172        C173   1.403       .  A
C173        C174   1.397       .  A
C173        H178   1.083       .  S
C174        C175   1.406       .  A
C174        H179   1.082       .  S
C175        C176   1.408       .  A
C176        H510   1.082       .  S
H180        C506   1.082   1_545  S
C181        C182   1.405       .  A
C181        C186   1.393       .  A
C181        H187   1.083       .  S
C182        C183   1.403       .  A
C183        C184   1.400       .  A
C183        H188   1.083       .  S
C184        C185   1.411       .  A
C184        H189   1.082       .  S
C185        C186   1.405       .  A
C186        H190   1.078       .  S
C191        C192   1.414       .  A
C191        C196   1.400       .  A
C191        H197   1.077       .  S
C192        C193   1.406       .  A
C193        C194   1.396       .  A
C193        H198   1.083       .  S
C194        C525   1.407   1_545  A
C194        H529   1.083   1_545  S
C195        C524   1.407       .  A
C195        C526   1.403       .  A
C196        C525   1.403   1_545  A
C196        H200   1.083   1_545  S
H199        C524   1.083       .  S
C201        C202   1.411       .  A
C201        C866   1.407   1_455  A
C201        H207   1.083       .  S
C202        C203   1.407   1_455  A
C203        C864   1.398       .  A
C203        H208   1.083       .  S
C204        C205   1.401       .  A
C204        C863   1.398       .  A
C204        H209   1.081       .  S
C205        C206   1.404       .  A
C206        C861   1.407       .  A
C206        H210   1.083       .  S
C211        C212   1.413       .  A
C211        C216   1.402       .  A
C211        H217   1.081       .  S
C212        C213   1.404       .  A
C213        C214   1.396       .  A
C213        H218   1.081       .  S
C214        C215   1.405       .  A
C214        H219   1.083       .  S
C215        C216   1.400       .  A
C216        H220   1.083       .  S
C221        C222   1.408       .  A
C221        C226   1.397       .  A
C221        H887   1.084       .  S
C222        C223   1.400       .  A
C223        C224   1.402       .  A
C223        H228   1.083       .  S
C224        C225   1.415       .  A
C224        H229   1.083       .  S
C225        C226   1.406       .  A
C226        H230   1.078       .  S
H227        C881   1.084   1_455  S
C231        C232   1.410       .  A
C231        C236   1.404       .  A
C231        H237   1.083       .  S
C232        C233   1.407       .  A
C233        C234   1.401       .  A
C233        H238   1.083       .  S
C234        C235   1.405       .  A
C234        H239   1.083       .  S
C235        C236   1.406       .  A
C236        H240   1.083       .  S
C241        C242   1.404       .  A
C241        C246   1.394       .  A
C241        H247   1.080       .  S
C242        C243   1.415       .  A
C243        C244   1.402       .  A
C243        H248   1.080       .  S
C244        C245   1.400       .  A
C244        H249   1.083       .  S
C245        C246   1.405       .  A
C246        H250   1.083       .  S
C251        C252   1.408       .  A
C251        C256   1.396       .  A
C251        H257   1.084   1_455  S
C252        C253   1.399       .  A
C253        C254   1.400       .  A
C253        H258   1.083       .  S
C254        C255   1.414       .  A
C254        H259   1.083       .  S
C255        C256   1.406       .  A
C256        H260   1.078       .  S
C261        C262   1.405       .  A
C261        C266   1.401       .  A
C261        H267   1.083       .  S
C262        C263   1.408       .  A
C263        C264   1.403       .  A
C263        H268   1.083   1_455  S
C264        C265   1.407       .  A
C264        H269   1.083       .  S
C265        C266   1.408       .  A
C266        H270   1.082       .  S
C271        C272   1.407       .  A
C271        C276   1.398       .  A
C271        H277   1.083       .  S
C272        C273   1.399       .  A
C273        C274   1.396       .  A
C273        H278   1.083       .  S
C274        C275   1.415       .  A
C274        H279   1.075       .  S
C275        C276   1.406       .  A
C276        H940   1.083       .  S
H280        C936   1.083   1_455  S
C281        C282   1.407       .  A
C281        C286   1.402       .  A
C281        H287   1.083       .  S
C282        C283   1.405       .  A
C283        C284   1.403       .  A
C283        H288   1.083       .  S
C284        C285   1.408       .  A
C284        H289   1.083       .  S
C285        C286   1.406       .  A
C286        H290   1.083       .  S
C291        C292   1.403       .  A
C291        C296   1.394       .  A
C291        H297   1.083       .  S
C292        C293   1.398       .  A
C293        C294   1.390       .  A
C293        H298   1.083       .  S
C294        C295   1.407       .  A
C294        H629   1.082       .  S
C295        C296   1.404       .  A
C296        H300   1.082       .  S
H299        C624   1.082       .  S
C301        C302   1.398       .  A
C301        C306   1.393       .  A
C301        H307   1.083       .  S
C302        C303   1.405       .  A
C303        C304   1.395       .  A
C303        H308   1.083       .  S
C304        C305   1.403       .  A
C304        H309   1.082       .  S
C305        C306   1.411       .  A
C306        H310   1.082       .  S
C311        C312   1.406       .  A
C311        C976   1.403       .  A
C311        H317   1.083       .  S
C312        C313   1.403       .  A
C313        C974   1.404   1_455  A
C313        H318   1.083       .  S
C314        C315   1.409       .  A
C314        C973   1.404       .  A
C314        H319   1.083       .  S
C315        C316   1.408       .  A
C316        C971   1.403       .  A
C316        H320   1.083       .  S
C321        C322   1.417       .  A
C321        C326   1.399       .  A
C321        H327   1.075       .  S
C322        C323   1.406       .  A
C323        C324   1.399       .  A
C323        H328   1.083       .  S
C324        C655   1.408       .  A
C324        H659   1.083       .  S
C325        C654   1.408       .  A
C325        C656   1.400       .  A
C326        C655   1.400       .  A
C326        H330   1.083       .  S
H329        C654   1.083       .  S
O331       Ni337   1.912       .  S
O331        C352   1.268       .  A
O332       Ni355   1.900       .  S
O332        C341   1.268       .  A
O333       Ni337   1.927       .  S
O333       Ni355   1.907       .  S
O333       Ni349   1.928       .  S
O333        H356   0.966       .  S
C334        O351   1.272       .  A
C334        O343   1.270       .  A
C334        C655   1.486       .  S
O335       Ni354   1.911       .  S
O335        C341   1.268       .  A
O336       Ni354   1.910       .  S
O336        C338   1.270       .  A
Ni337       O340   1.922       .  S
Ni337       O342   1.911       .  S
C338        O348   1.277       .  A
C338        C615   1.489       .  S
O339       Ni355   1.914       .  S
O339        C345   1.271       .  A
O340        C345   1.269       .  A
C341        C632   1.466       .  S
O342        C344   1.273       .  A
O343       Ni354   1.923       .  S
C344        O350   1.281       .  A
C344        C645   1.492       .  S
C345        C602   1.482       .  S
H346        O347   0.966       .  S
O347       Ni355   1.923       .  S
O347       Ni349   1.906       .  S
O347       Ni354   1.925       .  S
O348       Ni349   1.950       .  S
Ni349       O353   1.889       .  S
Ni349       O351   1.918       .  S
O350       Ni355   1.955       .  S
C352        O353   1.264       .  A
C352        C622   1.461       .  S
C357        C358   1.538       .  S
C357        C363   1.545       .  S
C357        C361   1.535       .  S
C357        C652   1.537       .  S
C358        H365   1.078       .  S
C358        C359   1.362       .  D
C359        C360   1.538       .  S
C359        C635   1.485       .  S
C360        C364   1.536       .  S
C360        C362   1.552       .  S
C360        H366   1.104       .  S
C361        H367   1.081       .  S
C361        C362   1.371       .  D
C362        C421   1.503       .  S
C363        H368   1.086       .  S
C363        C364   1.370       .  D
C364        C642   1.489       .  S
C369       C1030   1.543       .  S
C369        C375   1.537       .  S
C369        C373   1.536       .  S
C369        C605   1.533       .  S
C370       C1029   1.542   1_455  S
C370        H377   1.086       .  S
C371        C372   1.539       .  S
C371        C612   1.496       .  S
C372       C1036   1.534   1_455  S
C372        C374   1.548       .  S
C372        H378   1.103       .  S
C373        H379   1.081       .  S
C373        C704   1.371       .  D
C374        C703   1.370   1_455  D
C374        C462   1.498   1_556  S
C375        H380   1.078       .  S
C376       C1032   1.534       .  S
C376        C625   1.478       .  S
O381        C402   1.268       .  A
O382       Ni405   1.920       .  S
O382        C391   1.271       .  A
O383       Ni387   1.921       .  S
O383      Ni1065   1.918   1_455  S
O383        H406   0.966   1_565  S
C384        O401   1.273       .  A
C384        O393   1.267   1_455  A
C384        C582   1.480       .  S
O385        C391   1.267       .  A
O386       Ni404   1.907       .  S
O386        C388   1.273       .  A
Ni387       O390   1.919       .  S
Ni387       O392   1.909       .  S
C388       O1058   1.282       .  A
C388        C562   1.492       .  S
O389       Ni405   1.928       .  S
O389        C395   1.273       .  A
O390       C1055   1.269   1_455  A
C391        C575   1.477       .  S
O392        C394   1.272       .  A
O393      Ni1064   1.915       .  S
C394        O400   1.279       .  A
C394        C592   1.488       .  S
C395       O1050   1.268       .  A
C395        C552   1.481       .  S
H396        O397   0.966   1_455  S
O397       Ni735   1.934       .  S
O397       Ni399   1.918   1_655  S
O397      Ni1064   1.921       .  S
O398       Ni399   1.958       .  S
O398       C1048   1.281   1_455  A
Ni399       O403   1.920       .  S
Ni399       O401   1.928       .  S
O400      Ni1065   1.953   1_455  S
C402        O403   1.271       .  A
C402        C545   1.477       .  S
Ni404      O1053   1.915       .  S
Ni404      O1057   1.921       .  S
Ni405      O1060   1.953       .  S
Ni405      O1043   1.918       .  S
Ni405       O727   1.934   1_565  S
C407        C408   1.535       .  S
C407        C413   1.530       .  S
C407        C411   1.551       .  S
C407        C555   1.531       .  S
C408        H415   1.085       .  S
C408        C409   1.364       .  D
C409        C410   1.546       .  S
C409        C542   1.495       .  S
C410        C414   1.552       .  S
C410        C412   1.539       .  S
C410        H416   1.103       .  S
C411        H417   1.082       .  S
C411        C412   1.370       .  D
C412        C565   1.494       .  S
C413        H418   1.081       .  S
C413        C414   1.368       .  D
C414        C474   1.501       .  S
C419        C420   1.535       .  S
C419        C425   1.535       .  S
C419        C423   1.549       .  S
C419        C585   1.530       .  S
C420        H427   1.083       .  S
C420        C421   1.369       .  D
C421        C422   1.550       .  S
C422        C426   1.546       .  S
C422        C424   1.540       .  S
C422        H428   1.099       .  S
C423        H429   1.082       .  S
C423        C424   1.369       .  D
C424        C595   1.498       .  S
C425        H430   1.084       .  S
C425        C426   1.363       .  D
C426        C572   1.497       .  S
O431       Ni437   1.924       .  S
O431        C452   1.270       .  A
O432       Ni455   1.896       .  S
O432        C441   1.265       .  A
O433       Ni437   1.916       .  S
O433       Ni455   1.905       .  S
O433       Ni449   1.909       .  S
O433        H456   0.965       .  S
C434        O451   1.271       .  A
C434        O443   1.270       .  A
C434        C495   1.479       .  S
O435       Ni454   1.924       .  S
O435        C441   1.270       .  A
O436       Ni454   1.910       .  S
O436        C438   1.273       .  A
Ni437       O440   1.924       .  S
Ni437       O442   1.906       .  S
C438        O448   1.278       .  A
C438        C532   1.492       .  S
O439       Ni455   1.916       .  S
O439        C445   1.275       .  A
O440        C445   1.275       .  A
C441        C502   1.469       .  S
O442        C444   1.268       .  A
O443       Ni454   1.919       .  S
C444        O450   1.276       .  A
C444        C482   1.489       .  S
C445        C525   1.485       .  S
H446        O447   0.969       .  S
O447       Ni455   1.929       .  S
O447       Ni449   1.922       .  S
O447       Ni454   1.926       .  S
O448       Ni449   1.945       .  S
Ni449       O453   1.909       .  S
Ni449       O451   1.912       .  S
O450       Ni455   1.950       .  S
C452        O453   1.268       .  A
C452        C512   1.481       .  S
C457        C458   1.538       .  S
C457       C1123   1.538   1_455  S
C457        C461   1.538       .  S
C457        C492   1.528       .  S
C458        H465   1.084       .  S
C459       C1120   1.537   1_545  S
C459        C505   1.485   1_545  S
C460       C1119   1.538   1_565  S
C460        C464   1.540   1_565  S
C460        C792   1.548   1_565  S
C460        H466   1.103       .  S
C461        H467   1.080       .  S
C461        C462   1.370       .  D
C462        C790   1.548       .  S
C463       C1117   1.538       .  S
C463        H468   1.086       .  S
C464        C485   1.494   1_545  S
C469        C470   1.544       .  S
C469        C475   1.544       .  S
C469        C473   1.534       .  S
C469        C522   1.531       .  S
C470        H477   1.086       .  S
C470        C471   1.366       .  D
C471        C472   1.538       .  S
C471        C535   1.487       .  S
C472        C476   1.541       .  S
C472        C474   1.549       .  S
C472        H478   1.101       .  S
C473        H479   1.082       .  S
C473        C474   1.367       .  D
C475        H480   1.079       .  S
C475        C476   1.367       .  D
C476        C515   1.495       .  S
C481        C482   1.406       .  A
C481        C486   1.400       .  A
C481        H487   1.083       .  S
C482        C483   1.408       .  A
C483        C484   1.406       .  A
C483        H488   1.083       .  S
C484        C485   1.408       .  A
C484        H489   1.083   1_565  S
C485        C486   1.405       .  A
C486        H490   1.083       .  S
C491        C492   1.408       .  A
C491        C496   1.397       .  A
C491       H1157   1.082       .  S
C492        C493   1.412       .  A
C493        C494   1.399       .  A
C493        H498   1.081       .  S
C494        C495   1.403       .  A
C494        H499   1.084       .  S
C495        C496   1.405       .  A
C496        H500   1.083       .  S
H497       C1151   1.082       .  S
C501        C502   1.400       .  A
C501        C506   1.395       .  A
C501        H507   1.083       .  S
C502        C503   1.403       .  A
C503        C504   1.397       .  A
C503        H508   1.083       .  S
C504        C505   1.406       .  A
C504        H509   1.082       .  S
C505        C506   1.407       .  A
C511        C512   1.405       .  A
C511        C516   1.393       .  A
C511        H517   1.083       .  S
C512        C513   1.403       .  A
C513        C514   1.400       .  A
C513        H518   1.083       .  S
C514        C515   1.411       .  A
C514        H519   1.082       .  S
C515        C516   1.405       .  A
C516        H520   1.078       .  S
C521        C522   1.414       .  A
C521        C526   1.400       .  A
C521        H527   1.077       .  S
C522        C523   1.406       .  A
C523        C524   1.396       .  A
C523        H528   1.083       .  S
C526        H530   1.083       .  S
C531        C532   1.411       .  A
C531       C1196   1.407   1_455  A
C531        H537   1.083       .  S
C532        C533   1.407   1_455  A
C533       C1194   1.398       .  A
C533        H538   1.083       .  S
C534       C1193   1.398       .  A
C534        C535   1.401       .  A
C534        H539   1.080       .  S
C535        C536   1.404       .  A
C536       C1191   1.407       .  A
C536        H540   1.083       .  S
C541        C542   1.414       .  A
C541        C546   1.402       .  A
C541        H547   1.081       .  S
C542        C543   1.404       .  A
C543        C544   1.397       .  A
C543        H548   1.081       .  S
C544        C545   1.405       .  A
C544        H549   1.083       .  S
C545        C546   1.400       .  A
C546        H550   1.083       .  S
C551        C552   1.407       .  A
C551        C556   1.396       .  A
C551       H1217   1.084       .  S
C552        C553   1.400       .  A
C553        C554   1.402       .  A
C553        H558   1.083       .  S
C554        C555   1.415       .  A
C554        H559   1.083       .  S
C555        C556   1.406       .  A
C556        H560   1.078       .  S
H557       C1211   1.084   1_455  S
C561        C562   1.409       .  A
C561        C566   1.404       .  A
C561        H567   1.083       .  S
C562        C563   1.407       .  A
C563        C564   1.401       .  A
C563        H568   1.083       .  S
C564        C565   1.405       .  A
C564        H569   1.083       .  S
C565        C566   1.406       .  A
C566        H570   1.083       .  S
C571        C572   1.405       .  A
C571        C576   1.394       .  A
C571        H577   1.080       .  S
C572        C573   1.415       .  A
C573        C574   1.401       .  A
C573        H578   1.080       .  S
C574        C575   1.400       .  A
C574        H579   1.083       .  S
C575        C576   1.405       .  A
C576        H580   1.083       .  S
C581        C582   1.408       .  A
C581        C586   1.396       .  A
C581        H587   1.084   1_455  S
C582        C583   1.399       .  A
C583        C584   1.401       .  A
C583        H588   1.083       .  S
C584        C585   1.414       .  A
C584        H589   1.083       .  S
C585        C586   1.406       .  A
C586        H590   1.078       .  S
C591        C592   1.405       .  A
C591        C596   1.401       .  A
C591        H597   1.083       .  S
C592        C593   1.408       .  A
C593        C594   1.403       .  A
C593        H598   1.083   1_455  S
C594        C595   1.407       .  A
C594        H599   1.083       .  S
C595        C596   1.408       .  A
C596        H600   1.082       .  S
C601        C602   1.407       .  A
C601        C606   1.399       .  A
C601        H607   1.083       .  S
C602        C603   1.399       .  A
C603        C604   1.396       .  A
C603        H608   1.083       .  S
C604        C605   1.415       .  A
C604        H609   1.075       .  S
C605        C606   1.407       .  A
C606       H1270   1.083       .  S
H610       C1266   1.083   1_455  S
C611        C612   1.408       .  A
C611        C616   1.402       .  A
C611        H617   1.083       .  S
C612        C613   1.406       .  A
C613        C614   1.404       .  A
C613        H618   1.083       .  S
C614        C615   1.408       .  A
C614        H619   1.083       .  S
C615        C616   1.406       .  A
C616        H620   1.083       .  S
C621        C622   1.403       .  A
C621        C626   1.393       .  A
C621        H627   1.083       .  S
C622        C623   1.398       .  A
C623        C624   1.389       .  A
C623        H628   1.083       .  S
C624        C625   1.407       .  A
C625        C626   1.404       .  A
C626        H630   1.082       .  S
C631        C632   1.398       .  A
C631        C636   1.393       .  A
C631        H637   1.083       .  S
C632        C633   1.405       .  A
C633        C634   1.395       .  A
C633        H638   1.083       .  S
C634        C635   1.403       .  A
C634        H639   1.082       .  S
C635        C636   1.410       .  A
C636        H640   1.082       .  S
C641        C642   1.406       .  A
C641       C1306   1.403       .  A
C641        H647   1.083       .  S
C642        C643   1.403       .  A
C643       C1304   1.403   1_455  A
C643        H648   1.083       .  S
C644       C1303   1.403       .  A
C644        C645   1.409       .  A
C644        H649   1.083       .  S
C645        C646   1.408       .  A
C646       C1301   1.403       .  A
C646        H650   1.083       .  S
C651        C652   1.417       .  A
C651        C656   1.398   1_565  A
C651        H657   1.075       .  S
C652        C653   1.407       .  A
C653        C654   1.399   1_565  A
C653        H658   1.083       .  S
C656        H660   1.083       .  S
O661       Ni667   1.911       .  S
O661        C682   1.268       .  A
O662       Ni685   1.901       .  S
O662        C671   1.268       .  A
O663       Ni667   1.927       .  S
O663       Ni685   1.907       .  S
O663       Ni679   1.927       .  S
O663        H686   0.966       .  S
C664        O681   1.272       .  A
C664        O673   1.270       .  A
C664        C985   1.486       .  S
O665       Ni684   1.911       .  S
O665        C671   1.267       .  A
O666       Ni684   1.910       .  S
O666        C668   1.270       .  A
Ni667       O670   1.921       .  S
Ni667       O672   1.910       .  S
C668        O678   1.277       .  A
C668        C945   1.488       .  S
O669       Ni685   1.914       .  S
O669        C675   1.271       .  A
O670        C675   1.268       .  A
C671        C962   1.466       .  S
O672        C674   1.273       .  A
O673       Ni684   1.924       .  S
C674        O680   1.281       .  A
C674        C975   1.492       .  S
C675        C932   1.482       .  S
H676        O677   0.966       .  S
O677       Ni685   1.923       .  S
O677       Ni679   1.906       .  S
O677       Ni684   1.925       .  S
O678       Ni679   1.950       .  S
Ni679       O683   1.889       .  S
Ni679       O681   1.918       .  S
O680       Ni685   1.956       .  S
C682        O683   1.264       .  A
C682        C952   1.460       .  S
C687        C688   1.538       .  S
C687        C693   1.545       .  S
C687        C691   1.534       .  S
C687        C982   1.537       .  S
C688        H695   1.077       .  S
C688        C689   1.362       .  D
C689        C690   1.538       .  S
C689        C965   1.485       .  S
C690        C694   1.536       .  S
C690        C692   1.552       .  S
C690        H696   1.104       .  S
C691        H697   1.081       .  S
C691        C692   1.371       .  D
C692        C751   1.504       .  S
C693        H698   1.086       .  S
C693        C694   1.370       .  D
C694        C972   1.490       .  S
C699        C705   1.538       .  S
C699        C703   1.535       .  S
C699        C935   1.533       .  S
C700        H707   1.086       .  S
C700       C1031   1.370       .  D
C701        C702   1.538       .  S
C701       C1030   1.370   1_545  D
C701        C942   1.495       .  S
C702        C704   1.548   1_545  S
C702        H708   1.103       .  S
C703        H709   1.082       .  S
C704        C792   1.498   1_566  S
C705        H710   1.077       .  S
C705       C1036   1.360       .  D
C706       C1035   1.360   1_545  D
C706        C955   1.478       .  S
O711      Ni1047   1.913   1_545  S
O711        C732   1.268       .  A
O712       Ni735   1.920       .  S
O712        C721   1.271       .  A
O713       Ni717   1.921       .  S
O713      Ni1059   1.929       .  S
O713        H736   0.966       .  S
C714        O731   1.273       .  A
C714        O723   1.266       .  A
C714        C912   1.480       .  S
O715      Ni1064   1.907       .  S
O715        C721   1.267       .  A
O716       Ni734   1.907       .  S
O716        C718   1.273       .  A
Ni717      O1041   1.913       .  S
Ni717       O720   1.920       .  S
Ni717       O722   1.909       .  S
C718        C892   1.492       .  S
O719       Ni735   1.928       .  S
O719        C725   1.273       .  A
C721        C905   1.477       .  S
O722        C724   1.272       .  A
C724        O730   1.279       .  A
C724        C922   1.488       .  S
C725        C882   1.481       .  S
H726        O727   0.966       .  S
O727       Ni729   1.918       .  S
O728       Ni729   1.957       .  S
Ni729       O733   1.920       .  S
Ni729       O731   1.927       .  S
Ni729      O1043   1.929   1_545  S
C732        O733   1.271       .  A
C732        C875   1.476       .  S
Ni734      O1045   1.907   1_545  S
C737        C738   1.534       .  S
C737        C743   1.530       .  S
C737        C741   1.551       .  S
C737        C885   1.531       .  S
C738        H745   1.085       .  S
C738        C739   1.363       .  D
C739        C740   1.545       .  S
C739        C872   1.495       .  S
C740        C744   1.552       .  S
C740        C742   1.539       .  S
C740        H746   1.103       .  S
C741        H747   1.082       .  S
C741        C742   1.370       .  D
C742        C895   1.494       .  S
C743        H748   1.081       .  S
C743        C744   1.368       .  D
C744        C804   1.501       .  S
C749        C750   1.535       .  S
C749        C755   1.535       .  S
C749        C753   1.549       .  S
C749        C915   1.530       .  S
C750        H757   1.083       .  S
C750        C751   1.369       .  D
C751        C752   1.550       .  S
C752        C756   1.546       .  S
C752        C754   1.540       .  S
C752        H758   1.098       .  S
C753        H759   1.082       .  S
C753        C754   1.370       .  D
C754        C925   1.499       .  S
C755        H760   1.084       .  S
C755        C756   1.363       .  D
C756        C902   1.498       .  S
O761       Ni767   1.923       .  S
O761        C782   1.270       .  A
O762       Ni785   1.896       .  S
O762        C771   1.265       .  A
O763       Ni767   1.915       .  S
O763       Ni785   1.904       .  S
O763       Ni779   1.909       .  S
O763        H786   0.965       .  S
C764        O781   1.271       .  A
C764        O773   1.270       .  A
C764        C825   1.480       .  S
O765       Ni784   1.923       .  S
O765        C771   1.269       .  A
O766       Ni784   1.909       .  S
O766        C768   1.273       .  A
Ni767       O770   1.924       .  S
Ni767       O772   1.906       .  S
C768        O778   1.278       .  A
C768        C862   1.492       .  S
O769       Ni785   1.916       .  S
O769        C775   1.275       .  A
O770        C775   1.275       .  A
C771        C832   1.468       .  S
O772        C774   1.268       .  A
O773       Ni784   1.919       .  S
C774        O780   1.276       .  A
C774        C812   1.489       .  S
C775        C855   1.484       .  S
H776        O777   0.969       .  S
O777       Ni785   1.929       .  S
O777       Ni779   1.922       .  S
O777       Ni784   1.925       .  S
O778       Ni779   1.946       .  S
Ni779       O783   1.909       .  S
Ni779       O781   1.912       .  S
O780       Ni785   1.950       .  S
C782        O783   1.268       .  A
C782        C842   1.481       .  S
C787        C788   1.539       .  S
C787        C791   1.538       .  S
C787        C822   1.528       .  S
C788        H795   1.084       .  S
C788       C1119   1.364       .  D
C789       C1118   1.364       .  D
C789        C835   1.484       .  S
C790        C794   1.541   1_455  S
C790        H796   1.103   1_455  S
C791        H797   1.081       .  S
C791        C792   1.370       .  D
C793        H798   1.086       .  S
C793       C1124   1.367       .  D
C794       C1123   1.367       .  D
C794        C815   1.494       .  S
C799        C800   1.544       .  S
C799        C805   1.543       .  S
C799        C803   1.534       .  S
C799        C852   1.531       .  S
C800        H807   1.086       .  S
C800        C801   1.366       .  D
C801        C802   1.537       .  S
C801        C865   1.486       .  S
C802        C806   1.541       .  S
C802        C804   1.549       .  S
C802        H808   1.101       .  S
C803        H809   1.082       .  S
C803        C804   1.367       .  D
C805        H810   1.079       .  S
C805        C806   1.367       .  D
C806        C845   1.494       .  S
C811        C812   1.406       .  A
C811        C816   1.400       .  A
C811        H817   1.083       .  S
C812        C813   1.408       .  A
C813        C814   1.406       .  A
C813        H818   1.083       .  S
C814        C815   1.408       .  A
C814        H819   1.083       .  S
C815        C816   1.405       .  A
C816        H820   1.083       .  S
C821        C822   1.408       .  A
C821        C826   1.397       .  A
C822        C823   1.412       .  A
C823        C824   1.398       .  A
C823        H828   1.080       .  S
C824        C825   1.402       .  A
C824        H829   1.083       .  S
C825        C826   1.405       .  A
C826        H830   1.083       .  S
C831        C832   1.400       .  A
C831        C836   1.394       .  A
C831        H837   1.084       .  S
C832        C833   1.403       .  A
C833        C834   1.397       .  A
C833        H838   1.083       .  S
C834        C835   1.406       .  A
C834        H839   1.082       .  S
C835        C836   1.407       .  A
C836       H1170   1.082       .  S
H840       C1166   1.082   1_545  S
C841        C842   1.405       .  A
C841        C846   1.393       .  A
C841        H847   1.083       .  S
C842        C843   1.403       .  A
C843        C844   1.400       .  A
C843        H848   1.083       .  S
C844        C845   1.411       .  A
C844        H849   1.082       .  S
C845        C846   1.405       .  A
C846        H850   1.079       .  S
C851        C852   1.414       .  A
C851        C856   1.400       .  A
C851        H857   1.077       .  S
C852        C853   1.406       .  A
C853        C854   1.396       .  A
C853        H858   1.083       .  S
C854       C1185   1.407   1_545  A
C854       H1189   1.083   1_545  S
C855       C1184   1.407       .  A
C855       C1186   1.403       .  A
C856       C1185   1.403   1_545  A
C856        H860   1.083   1_545  S
H859       C1184   1.083       .  S
C861        C862   1.411       .  A
C861        H867   1.083       .  S
C862        C863   1.407       .  A
C863        H868   1.083       .  S
C864        C865   1.401       .  A
C864        H869   1.081       .  S
C865        C866   1.404       .  A
C866        H870   1.083   1_655  S
C871        C872   1.413       .  A
C871        C876   1.402       .  A
C871        H877   1.081       .  S
C872        C873   1.404       .  A
C873        C874   1.397       .  A
C873        H878   1.081       .  S
C874        C875   1.405       .  A
C874        H879   1.083       .  S
C875        C876   1.400       .  A
C876        H880   1.083       .  S
C881        C882   1.408       .  A
C881        C886   1.397       .  A
C882        C883   1.400       .  A
C883        C884   1.402       .  A
C883        H888   1.083       .  S
C884        C885   1.415       .  A
C884        H889   1.083       .  S
C885        C886   1.406       .  A
C886        H890   1.078       .  S
C891        C892   1.410       .  A
C891        C896   1.404       .  A
C891        H897   1.083   1_655  S
C892        C893   1.407       .  A
C893        C894   1.401       .  A
C893        H898   1.083       .  S
C894        C895   1.405       .  A
C894        H899   1.083       .  S
C895        C896   1.406       .  A
C896        H900   1.083       .  S
C901        C902   1.404       .  A
C901        C906   1.394       .  A
C901        H907   1.080       .  S
C902        C903   1.415       .  A
C903        C904   1.402       .  A
C903        H908   1.080       .  S
C904        C905   1.400       .  A
C904        H909   1.083       .  S
C905        C906   1.405       .  A
C906        H910   1.083       .  S
C911        C912   1.408       .  A
C911        C916   1.396       .  A
C911        H917   1.084       .  S
C912        C913   1.399       .  A
C913        C914   1.400       .  A
C913        H918   1.083       .  S
C914        C915   1.414       .  A
C914        H919   1.083       .  S
C915        C916   1.406       .  A
C916        H920   1.078       .  S
C921        C922   1.405       .  A
C921        C926   1.401       .  A
C921        H927   1.083       .  S
C922        C923   1.408       .  A
C923        C924   1.403       .  A
C923        H928   1.083       .  S
C924        C925   1.407       .  A
C924        H929   1.083       .  S
C925        C926   1.408       .  A
C926        H930   1.082       .  S
C931        C932   1.408       .  A
C931        C936   1.398       .  A
C931        H937   1.083       .  S
C932        C933   1.399       .  A
C933        C934   1.396       .  A
C933        H938   1.083       .  S
C934        C935   1.416       .  A
C934        H939   1.074       .  S
C935        C936   1.406       .  A
C941        C942   1.407       .  A
C941        C946   1.402       .  A
C941        H947   1.083       .  S
C942        C943   1.405       .  A
C943        C944   1.404       .  A
C943        H948   1.083   1_545  S
C944        C945   1.408       .  A
C944        H949   1.083       .  S
C945        C946   1.406       .  A
C946        H950   1.083       .  S
C951        C952   1.403       .  A
C951        C956   1.393       .  A
C951        H957   1.083       .  S
C952        C953   1.398       .  A
C953        C954   1.389       .  A
C953        H958   1.083       .  S
C954        C955   1.407       .  A
C954       H1289   1.082       .  S
C955        C956   1.404       .  A
C956        H960   1.082       .  S
H959       C1284   1.082       .  S
C961        C962   1.398       .  A
C961        C966   1.393       .  A
C961        H967   1.083       .  S
C962        C963   1.405       .  A
C963        C964   1.395       .  A
C963        H968   1.083       .  S
C964        C965   1.403       .  A
C964        H969   1.082       .  S
C965        C966   1.411       .  A
C966        H970   1.082       .  S
C971        C972   1.406       .  A
C971        H977   1.083       .  S
C972        C973   1.403       .  A
C973        H978   1.083       .  S
C974        C975   1.409       .  A
C974        H979   1.083       .  S
C975        C976   1.408   1_655  A
C976        H980   1.083       .  S
C981        C982   1.417       .  A
C981        C986   1.398       .  A
C981        H987   1.075       .  S
C982        C983   1.407       .  A
C983        C984   1.399       .  A
C983        H988   1.083       .  S
C984       C1315   1.408       .  A
C984       H1319   1.083       .  S
C985       C1314   1.408       .  A
C985       C1316   1.400       .  A
C986       C1315   1.400       .  A
C986        H990   1.083       .  S
H989       C1314   1.083       .  S
O991       Ni997   1.912       .  S
O991       C1012   1.268       .  A
O992      Ni1015   1.900       .  S
O992       C1001   1.268       .  A
O993       Ni997   1.927       .  S
O993      Ni1015   1.908       .  S
O993      Ni1009   1.927       .  S
O993       H1016   0.966       .  S
C994       O1011   1.272       .  A
C994       O1003   1.270       .  A
C994       C1315   1.486       .  S
O995      Ni1014   1.911       .  S
O995       C1001   1.267       .  A
O996      Ni1014   1.910       .  S
O996        C998   1.270       .  A
Ni997      O1000   1.921       .  S
Ni997      O1002   1.910       .  S
C998       O1008   1.277       .  A
C998       C1275   1.488       .  S
O999      Ni1015   1.914       .  S
O999       C1005   1.271       .  A
O1000      C1005   1.269       .  A
C1001      C1292   1.466       .  S
O1002      C1004   1.273       .  A
O1003     Ni1014   1.923       .  S
C1004      O1010   1.281       .  A
C1004      C1305   1.492       .  S
C1005      C1262   1.482       .  S
H1006      O1007   0.966       .  S
O1007     Ni1015   1.922       .  S
O1007     Ni1009   1.906       .  S
O1007     Ni1014   1.925       .  S
O1008     Ni1009   1.949       .  S
Ni1009     O1013   1.889       .  S
Ni1009     O1011   1.918       .  S
O1010     Ni1015   1.954       .  S
C1012      O1013   1.264       .  A
C1012      C1282   1.461       .  S
C1017      C1018   1.538       .  S
C1017      C1023   1.545       .  S
C1017      C1021   1.534       .  S
C1017      C1312   1.537       .  S
C1018      H1025   1.077       .  S
C1018      C1019   1.362       .  D
C1019      C1020   1.538       .  S
C1019      C1295   1.485       .  S
C1020      C1024   1.536       .  S
C1020      C1022   1.553       .  S
C1020      H1026   1.104       .  S
C1021      H1027   1.081       .  S
C1021      C1022   1.371       .  D
C1022      C1081   1.504       .  S
C1023      H1028   1.086       .  S
C1023      C1024   1.370       .  D
C1024      C1302   1.490       .  S
C1029      C1035   1.537       .  S
C1029      C1033   1.536       .  S
C1029      C1265   1.532       .  S
C1030      H1037   1.086       .  S
C1031      C1032   1.538       .  S
C1031      C1272   1.495       .  S
C1032      C1034   1.548       .  S
C1032      H1038   1.103       .  S
C1033      H1039   1.081       .  S
C1034      C1122   1.498   1_556  S
C1035      H1040   1.079       .  S
C1036      C1285   1.479       .  S
O1041      C1062   1.268       .  A
O1042     Ni1065   1.920       .  S
O1042      C1051   1.271       .  A
O1043     Ni1047   1.921       .  S
O1043      H1066   0.966   1_565  S
C1044      O1061   1.273       .  A
C1044      O1053   1.266       .  A
C1044      C1242   1.480       .  S
O1045      C1051   1.267       .  A
O1046     Ni1064   1.908       .  S
O1046      C1048   1.273       .  A
Ni1047     O1050   1.919       .  S
Ni1047     O1052   1.908       .  S
C1048      C1222   1.491       .  S
O1049     Ni1065   1.928       .  S
O1049      C1055   1.273       .  A
C1051      C1235   1.477       .  S
O1052      C1054   1.272       .  A
C1054      O1060   1.279       .  A
C1054      C1252   1.488       .  S
C1055      C1212   1.481       .  S
H1056      O1057   0.966       .  S
O1057     Ni1059   1.918       .  S
O1058     Ni1059   1.958       .  S
Ni1059     O1063   1.920       .  S
Ni1059     O1061   1.927       .  S
C1062      O1063   1.271       .  A
C1062      C1205   1.477       .  S
C1067      C1068   1.535       .  S
C1067      C1073   1.530       .  S
C1067      C1071   1.551       .  S
C1067      C1215   1.531       .  S
C1068      H1075   1.085       .  S
C1068      C1069   1.363       .  D
C1069      C1070   1.545       .  S
C1069      C1202   1.495       .  S
C1070      C1074   1.552       .  S
C1070      C1072   1.539       .  S
C1070      H1076   1.103       .  S
C1071      H1077   1.082       .  S
C1071      C1072   1.370       .  D
C1072      C1225   1.494       .  S
C1073      H1078   1.081       .  S
C1073      C1074   1.368       .  D
C1074      C1134   1.501       .  S
C1079      C1080   1.535       .  S
C1079      C1085   1.535       .  S
C1079      C1083   1.549       .  S
C1079      C1245   1.530       .  S
C1080      H1087   1.083       .  S
C1080      C1081   1.369       .  D
C1081      C1082   1.550       .  S
C1082      C1086   1.546       .  S
C1082      C1084   1.540       .  S
C1082      H1088   1.099       .  S
C1083      H1089   1.082       .  S
C1083      C1084   1.369       .  D
C1084      C1255   1.498       .  S
C1085      H1090   1.084       .  S
C1085      C1086   1.363       .  D
C1086      C1232   1.497       .  S
O1091     Ni1097   1.924       .  S
O1091      C1112   1.270       .  A
O1092     Ni1115   1.897       .  S
O1092      C1101   1.265       .  A
O1093     Ni1097   1.916       .  S
O1093     Ni1115   1.905       .  S
O1093     Ni1109   1.909       .  S
O1093      H1116   0.965       .  S
C1094      O1111   1.271       .  A
C1094      O1103   1.270       .  A
C1094      C1155   1.479       .  S
O1095     Ni1114   1.924       .  S
O1095      C1101   1.270       .  A
O1096     Ni1114   1.910       .  S
O1096      C1098   1.273       .  A
Ni1097     O1100   1.924       .  S
Ni1097     O1102   1.906       .  S
C1098      O1108   1.278       .  A
C1098      C1192   1.492       .  S
O1099     Ni1115   1.915       .  S
O1099      C1105   1.274       .  A
O1100      C1105   1.275       .  A
C1101      C1162   1.469       .  S
O1102      C1104   1.268       .  A
O1103     Ni1114   1.919       .  S
C1104      O1110   1.276       .  A
C1104      C1142   1.489       .  S
C1105      C1185   1.485       .  S
H1106      O1107   0.969       .  S
O1107     Ni1115   1.929       .  S
O1107     Ni1109   1.922       .  S
O1107     Ni1114   1.926       .  S
O1108     Ni1109   1.945       .  S
Ni1109     O1113   1.909       .  S
Ni1109     O1111   1.912       .  S
O1110     Ni1115   1.950       .  S
C1112      O1113   1.268       .  A
C1112      C1172   1.481       .  S
C1117      C1118   1.539       .  S
C1117      C1121   1.538       .  S
C1117      C1152   1.528       .  S
C1118      H1125   1.084       .  S
C1119      C1165   1.485   1_545  S
C1120      C1124   1.540   1_465  S
C1120      H1126   1.103   1_455  S
C1121      H1127   1.081       .  S
C1121      C1122   1.370       .  D
C1123      H1128   1.086       .  S
C1124      C1145   1.493   1_545  S
C1129      C1130   1.544       .  S
C1129      C1135   1.543       .  S
C1129      C1133   1.533       .  S
C1129      C1182   1.531       .  S
C1130      H1137   1.086       .  S
C1130      C1131   1.366       .  D
C1131      C1132   1.538       .  S
C1131      C1195   1.487       .  S
C1132      C1136   1.542       .  S
C1132      C1134   1.549       .  S
C1132      H1138   1.100       .  S
C1133      H1139   1.082       .  S
C1133      C1134   1.367       .  D
C1135      H1140   1.079       .  S
C1135      C1136   1.367       .  D
C1136      C1175   1.496       .  S
C1141      C1142   1.406       .  A
C1141      C1146   1.400       .  A
C1141      H1147   1.083       .  S
C1142      C1143   1.408       .  A
C1143      C1144   1.406       .  A
C1143      H1148   1.083       .  S
C1144      C1145   1.407       .  A
C1144      H1149   1.083   1_565  S
C1145      C1146   1.405       .  A
C1146      H1150   1.083       .  S
C1151      C1152   1.408       .  A
C1151      C1156   1.397       .  A
C1152      C1153   1.412       .  A
C1153      C1154   1.398       .  A
C1153      H1158   1.080       .  S
C1154      C1155   1.402       .  A
C1154      H1159   1.084       .  S
C1155      C1156   1.405       .  A
C1156      H1160   1.083       .  S
C1161      C1162   1.400       .  A
C1161      C1166   1.395       .  A
C1161      H1167   1.083       .  S
C1162      C1163   1.403       .  A
C1163      C1164   1.397       .  A
C1163      H1168   1.083       .  S
C1164      C1165   1.406       .  A
C1164      H1169   1.082       .  S
C1165      C1166   1.407       .  A
C1171      C1172   1.405       .  A
C1171      C1176   1.393       .  A
C1171      H1177   1.083       .  S
C1172      C1173   1.403       .  A
C1173      C1174   1.400       .  A
C1173      H1178   1.083       .  S
C1174      C1175   1.411       .  A
C1174      H1179   1.081       .  S
C1175      C1176   1.405       .  A
C1176      H1180   1.078       .  S
C1181      C1182   1.414       .  A
C1181      C1186   1.400       .  A
C1181      H1187   1.077       .  S
C1182      C1183   1.406       .  A
C1183      C1184   1.396       .  A
C1183      H1188   1.083       .  S
C1186      H1190   1.083       .  S
C1191      C1192   1.411       .  A
C1191      H1197   1.083       .  S
C1192      C1193   1.407       .  A
C1193      H1198   1.083       .  S
C1194      C1195   1.402       .  A
C1194      H1199   1.080       .  S
C1195      C1196   1.404       .  A
C1196      H1200   1.083   1_655  S
C1201      C1202   1.414       .  A
C1201      C1206   1.402       .  A
C1201      H1207   1.081       .  S
C1202      C1203   1.404       .  A
C1203      C1204   1.397       .  A
C1203      H1208   1.081       .  S
C1204      C1205   1.405       .  A
C1204      H1209   1.083       .  S
C1205      C1206   1.400       .  A
C1206      H1210   1.083       .  S
C1211      C1212   1.407       .  A
C1211      C1216   1.396       .  A
C1212      C1213   1.400       .  A
C1213      C1214   1.402       .  A
C1213      H1218   1.083       .  S
C1214      C1215   1.415       .  A
C1214      H1219   1.083       .  S
C1215      C1216   1.406       .  A
C1216      H1220   1.078       .  S
C1221      C1222   1.409       .  A
C1221      C1226   1.404       .  A
C1221      H1227   1.083   1_655  S
C1222      C1223   1.407       .  A
C1223      C1224   1.401       .  A
C1223      H1228   1.083       .  S
C1224      C1225   1.405       .  A
C1224      H1229   1.083       .  S
C1225      C1226   1.406       .  A
C1226      H1230   1.083   1_655  S
C1231      C1232   1.404       .  A
C1231      C1236   1.394       .  A
C1231      H1237   1.080       .  S
C1232      C1233   1.415       .  A
C1233      C1234   1.402       .  A
C1233      H1238   1.080       .  S
C1234      C1235   1.400       .  A
C1234      H1239   1.083       .  S
C1235      C1236   1.405       .  A
C1236      H1240   1.083       .  S
C1241      C1242   1.408       .  A
C1241      C1246   1.396       .  A
C1241      H1247   1.084       .  S
C1242      C1243   1.399       .  A
C1243      C1244   1.401       .  A
C1243      H1248   1.083       .  S
C1244      C1245   1.414       .  A
C1244      H1249   1.083       .  S
C1245      C1246   1.406       .  A
C1246      H1250   1.078       .  S
C1251      C1252   1.405       .  A
C1251      C1256   1.401       .  A
C1251      H1257   1.083       .  S
C1252      C1253   1.408       .  A
C1253      C1254   1.403       .  A
C1253      H1258   1.083       .  S
C1254      C1255   1.407       .  A
C1254      H1259   1.083       .  S
C1255      C1256   1.408       .  A
C1256      H1260   1.082       .  S
C1261      C1262   1.407       .  A
C1261      C1266   1.398       .  A
C1261      H1267   1.083       .  S
C1262      C1263   1.399       .  A
C1263      C1264   1.396       .  A
C1263      H1268   1.083       .  S
C1264      C1265   1.415       .  A
C1264      H1269   1.076       .  S
C1265      C1266   1.406       .  A
C1271      C1272   1.407       .  A
C1271      C1276   1.402       .  A
C1271      H1277   1.083       .  S
C1272      C1273   1.405       .  A
C1273      C1274   1.404       .  A
C1273      H1278   1.083       .  S
C1274      C1275   1.408       .  A
C1274      H1279   1.083       .  S
C1275      C1276   1.406       .  A
C1276      H1280   1.083       .  S
C1281      C1282   1.403       .  A
C1281      C1286   1.394       .  A
C1281      H1287   1.083       .  S
C1282      C1283   1.398       .  A
C1283      C1284   1.390       .  A
C1283      H1288   1.083       .  S
C1284      C1285   1.407       .  A
C1285      C1286   1.404       .  A
C1286      H1290   1.082       .  S
C1291      C1292   1.398       .  A
C1291      C1296   1.393       .  A
C1291      H1297   1.083       .  S
C1292      C1293   1.405       .  A
C1293      C1294   1.395       .  A
C1293      H1298   1.083       .  S
C1294      C1295   1.403       .  A
C1294      H1299   1.082       .  S
C1295      C1296   1.411       .  A
C1296      H1300   1.082       .  S
C1301      C1302   1.406       .  A
C1301      H1307   1.083       .  S
C1302      C1303   1.403       .  A
C1303      H1308   1.083       .  S
C1304      C1305   1.409       .  A
C1304      H1309   1.083       .  S
C1305      C1306   1.408   1_655  A
C1306      H1310   1.083       .  S
C1311      C1312   1.417       .  A
C1311      C1316   1.399   1_565  A
C1311      H1317   1.075       .  S
C1312      C1313   1.407       .  A
C1313      C1314   1.399   1_565  A
C1313      H1318   1.083       .  S
C1316      H1320   1.083       .  S
