geometry optimzed in LAMMPS
_audit_creation_date              2020-11-30 
_audit_creation_method            'lammps2cif' 
_symmetry_space_group_name_H-M    'P1' 
_symmetry_Int_Tables_number       1 
_symmetry_cell_setting            triclinic 
loop_ 
_symmetry_equiv_pos_as_xyz 
  x,y,z 
_cell_length_a                    28.48734549 
_cell_length_b                    43.818990354166345 
_cell_length_c                    27.63969336182162 
_cell_angle_alpha                 89.34679822580614 
_cell_angle_beta                  88.65956559393952 
_cell_angle_gamma                 87.73653797054487 
loop_ 
_atom_site_label 
_atom_site_type_symbol 
_atom_site_fract_x 
_atom_site_fract_y 
_atom_site_fract_z 
_atom_site_charge 
O1          O  0.97920024  0.22611369  0.89170575    -0.76300
C2          C  0.02195941  0.16308128  0.00866262     0.84800
O3          O  0.90179206  0.27134929  0.02282215    -0.77400
O4          O  0.04676133  0.23811564  0.10511329    -0.78900
O5          O  0.12352067  0.26268657  0.95191857    -0.78600
O6          O  0.03015986  0.26317945  0.87922229    -0.77300
Zn7        Zn  0.97392539  0.21997359  0.96341892     1.55700
O8          O  0.12858797  0.23290894  0.01764222    -0.78700
Cd9        Cd  0.05206895  0.27258801  0.94698738     1.59700
Cd10       Cd  0.97282581  0.27898682  0.03118383     1.59600
O11         O  0.04334811  0.31919082  0.95675009    -0.78700
O12         O  0.01373131  0.24879590  0.99401858    -1.89200
Cd13       Cd  0.05890571  0.22514979  0.03543761     1.59900
O14         O  0.98665922  0.32413508  0.01324675    -0.78600
O15         O  0.05029797  0.17863573  0.03218947    -0.77300
C16         C  0.88194740  0.24941072  0.00267230     0.85300
C17         C  0.00131020  0.24427605  0.86402977     0.84900
O18         O  0.99149118  0.17582548  0.98108472    -0.76200
C19         C  0.14759693  0.24771737  0.98301516     0.85700
O20         O  0.90530473  0.22816620  0.98082973    -0.76300
C21         C  0.01640137  0.33573456  0.98386685     0.85900
C22         C  0.01798066  0.25705502  0.12546208     0.86200
O23         O  0.98784284  0.27357539  0.10286601    -0.78700
O24         O  0.01680624  0.32351813  0.51787419    -0.76300
C25         C  0.98149017  0.25308096  0.62687056     0.84800
O26         O  0.10718789  0.22947546  0.47852281    -0.77400
O27         O  0.96491752  0.17878845  0.52505140    -0.78900
O28         O  0.88383772  0.26919850  0.45731365    -0.78600
O29         O  0.96352302  0.32316409  0.46047127    -0.77300
Zn30       Zn  0.02852056  0.27826241  0.53542325     1.55700
O31         O  0.88001433  0.23392953  0.51599589    -0.78700
Cd32       Cd  0.95494070  0.27710420  0.45082392     1.59700
Cd33       Cd  0.03859691  0.22272404  0.45958955     1.59600
O34         O  0.97804512  0.26891675  0.38180676    -0.78700
O35         O  0.99353428  0.25105984  0.49554347    -1.89200
Cd36       Cd  0.94952459  0.22511551  0.53360395     1.59900
O37         O  0.03539529  0.23261132  0.38700488    -0.78600
O38         O  0.95627963  0.23450792  0.60520150    -0.77300
C39         C  0.12450243  0.24927547  0.50551563     0.85300
C40         C  0.99019490  0.33755854  0.48766847     0.84900
O41         O  0.00931109  0.27091318  0.60491055    -0.76200
C42         C  0.86050514  0.25177725  0.48516234     0.85700
O43         O  0.09885514  0.26892196  0.52861001    -0.76300
C44         C  0.01002828  0.25156975  0.36295575     0.85900
C45         C  0.99545316  0.16372142  0.49964954     0.86200
O46         O  0.02513149  0.17692590  0.47209720    -0.78700
O47         O  0.54139906  0.31608677  0.03430569    -0.76300
C48         C  0.50218703  0.24170218  0.12282742     0.84800
O49         O  0.62852450  0.22850197  0.96675135    -0.77400
O50         O  0.48486259  0.17556998  0.01279290    -0.78900
O51         O  0.40615661  0.27231384  0.95828685    -0.78600
O52         O  0.48877218  0.32413575  0.97691701    -0.77300
Zn53       Zn  0.55290484  0.27032659  0.03772963     1.55700
O54         O  0.40145233  0.23130306  0.00644937    -0.78700
Cd55       Cd  0.47824436  0.27965840  0.95384950     1.59700
Cd56       Cd  0.55864414  0.22189792  0.95213797     1.59600
O57         O  0.49878225  0.27442159  0.88237053    -0.78700
O58         O  0.51539377  0.24871077  0.99256194    -1.89200
Cd59       Cd  0.46997290  0.22133222  0.02543251     1.59900
O60         O  0.54816547  0.23318492  0.88108844    -0.78600
O61         O  0.47390917  0.22702152  0.09803131    -0.77300
C62         C  0.64710735  0.24495661  0.99815155     0.85300
C63         C  0.51510021  0.33409544  0.00953622     0.84900
O64         O  0.53425142  0.25778580  0.10434958    -0.76200
C65         C  0.38237584  0.25212673  0.98026791     0.85700
O66         O  0.62256620  0.26151098  0.02747319    -0.76300
C67         C  0.52462960  0.25451863  0.86004479     0.85900
C68         C  0.51637356  0.16143011  0.98734258     0.86200
O69         O  0.54674134  0.17561086  0.96213934    -0.78700
O70         O  0.51515280  0.32217637  0.51495480    -0.76300
C71         C  0.50379928  0.24967818  0.62290248     0.84800
O72         O  0.60605825  0.23026583  0.46093912    -0.77400
O73         O  0.46805242  0.17658606  0.52101796    -0.78900
O74         O  0.37908561  0.26664965  0.47145918    -0.78600
O75         O  0.45669099  0.32096261  0.46315127    -0.77300
Zn76       Zn  0.53342492  0.27742237  0.52662462     1.55700
O77         O  0.38387674  0.23211860  0.53117337    -0.78700
Cd78       Cd  0.44854270  0.27489334  0.45390444     1.59700
Cd79       Cd  0.53568552  0.22256910  0.45228559     1.59600
O80         O  0.46034243  0.26514681  0.38244982    -0.78700
O81         O  0.49375300  0.24979764  0.49302894    -1.89200
Cd82       Cd  0.45587866  0.22283001  0.53637564     1.59900
O83         O  0.52051545  0.23061299  0.38172845    -0.78600
O84         O  0.47548031  0.23096084  0.60594144    -0.77300
C85         C  0.62577209  0.25110331  0.48372013     0.85300
C86         C  0.48439277  0.33572715  0.48867769     0.84900
O87         O  0.52685664  0.26818294  0.59681828    -0.76200
C88         C  0.35991294  0.24957504  0.50311043     0.85700
O89         O  0.60238922  0.27091416  0.50864561    -0.76300
C90         C  0.48988125  0.24741571  0.36051251     0.85900
C91         C  0.49653153  0.16261476  0.49171801     0.86200
O92         O  0.52490063  0.17687200  0.46435587    -0.78700
N93         N  0.00660042  0.46674446  0.95077713    -0.34400
N94         N  0.01360814  0.03328496  0.93503498    -0.54900
N95         N  0.01590370  0.03154678  0.04285772    -0.34400
N96         N  0.00604589  0.46810743  0.05854639    -0.54900
C97         C  0.99607812  0.47181576  0.90351539     0.29200
C98         C  0.99538138  0.43771695  0.96210654     0.29200
C99         C  0.00195565  0.06102100  0.03466181     0.29200
C100        C  0.00768375  0.02525998  0.09053679     0.29200
C101        C  0.02212292  0.03009236  0.88678576     0.37800
C102        C  0.01529847  0.06343896  0.94434053     0.37800
C103        C  0.01125778  0.43765667  0.05127340     0.37800
C104        C  0.01427032  0.47275778  0.10604864     0.37800
C105        C  0.97852893  0.44562221  0.88452184    -0.19600
C106        C  0.97754066  0.42429857  0.92144983    -0.19600
C107        C  0.98504393  0.07369115  0.07780909    -0.19600
C108        C  0.98891066  0.05124060  0.11299143    -0.19600
C109        C  0.02887807  0.05833489  0.86537880    -0.20700
C110        C  0.02464961  0.07941061  0.90171987    -0.20700
C111        C  0.02285024  0.42296841  0.09441727    -0.20700
C112        C  0.02460353  0.44513311  0.12900814    -0.20700
C113        C  0.00248242  0.49926721  0.87682106    -0.16100
C114        C  0.00242804  0.42251616  0.00740625    -0.16100
C115        C  0.00943771  0.50130902  0.12965776    -0.16000
C116        C  0.00590418  0.07725481  0.98990967    -0.16000
H117        H  0.96681522  0.44237226  0.84803814     0.16900
H118        H  0.96479340  0.40148571  0.91847924     0.16900
H119        H  0.97136041  0.09678888  0.08351968     0.16900
H120        H  0.97878520  0.05374168  0.15076965     0.16900
H121        H  0.03577880  0.06328605  0.82748188     0.15100
H122        H  0.02789836  0.10380538  0.89713756     0.15100
H123        H  0.02897299  0.39871514  0.10056715     0.15100
H124        H  0.03211880  0.44128946  0.16684833     0.15100
H125        H  0.02466988  0.48111515  0.97281439     0.28400
H126        H  0.03432538  0.01761958  0.01821395     0.28400
N127        N  0.01259171  0.46877717  0.55746316    -0.34400
N128        N  0.01217191  0.46781979  0.45008317    -0.54900
N129        N  0.02628570  0.03135815  0.43169848    -0.34400
N130        N  0.02412959  0.03493272  0.53950944    -0.54900
C131        C  0.00470259  0.43902540  0.54923003     0.29200
C132        C  0.00204721  0.47423643  0.60491818     0.29200
C133        C  0.01700103  0.02542706  0.38473883     0.29200
C134        C  0.01906449  0.06177289  0.43834010     0.29200
C135        C  0.02107886  0.43778147  0.45952408     0.37800
C136        C  0.02077919  0.47223990  0.40203110     0.37800
C137        C  0.03262379  0.03134549  0.58739617     0.37800
C138        C  0.03358011  0.06411122  0.52769288     0.37800
C139        C  0.98902917  0.42545728  0.59198297    -0.19600
C140        C  0.98743037  0.44758966  0.62698796    -0.19600
C141        C  0.00447623  0.05252095  0.36120573    -0.19600
C142        C  0.00557502  0.07534953  0.39490987    -0.19600
C143        C  0.03545852  0.42310745  0.41712544    -0.20700
C144        C  0.03490342  0.44484503  0.38076063    -0.20700
C145        C  0.04733801  0.05841373  0.60615979    -0.20700
C146        C  0.04820627  0.07909993  0.56837051    -0.20700
C147        C  0.01402539  0.42313680  0.50525767    -0.16100
C148        C  0.00827037  0.50202205  0.62947724    -0.16100
C149        C  0.02642744  0.07803041  0.48159149    -0.16000
C150        C  0.01334233  0.50033614  0.37684194    -0.16000
H151        H  0.98005206  0.40188937  0.59759866     0.16900
H152        H  0.97718036  0.44430035  0.66458036     0.16900
H153        H  0.99532849  0.05556536  0.32362614     0.16900
H154        H  0.99748963  0.09932303  0.38801594     0.16900
H155        H  0.04515064  0.39917324  0.41262794     0.15100
H156        H  0.04385514  0.44092873  0.34300529     0.15100
H157        H  0.05646509  0.06279399  0.64316803     0.15100
H158        H  0.05829777  0.10257615  0.57072250     0.15100
H159        H  0.02933408  0.48335781  0.53339087     0.28400
H160        H  0.04128582  0.01623907  0.45662188     0.28400
N161        N  0.48865905  0.46737517  0.95146661    -0.34400
N162        N  0.49107340  0.46517826  0.05879056    -0.54900
N163        N  0.48429820  0.03137462  0.06706800    -0.34400
N164        N  0.48875902  0.03283512  0.95907889    -0.54900
C165        C  0.49792673  0.43729895  0.95980149     0.29200
C166        C  0.49804719  0.47291966  0.90379654     0.29200
C167        C  0.49266209  0.02534482  0.11455535     0.29200
C168        C  0.49559583  0.06065807  0.05787288     0.29200
C169        C  0.48451033  0.43532391  0.04995007     0.37800
C170        C  0.48421781  0.46921868  0.10710836     0.37800
C171        C  0.48081195  0.02919594  0.91129671     0.37800
C172        C  0.48205971  0.06295382  0.96827275     0.37800
C173        C  0.51338464  0.42358713  0.91692243    -0.19600
C174        C  0.51344705  0.44600919  0.88170147    -0.19600
C175        C  0.50912565  0.05122838  0.13577116    -0.19600
C176        C  0.51118812  0.07338647  0.10010775    -0.19600
C177        C  0.47394380  0.42026194  0.09304782    -0.20700
C178        C  0.47405362  0.44164772  0.12919044    -0.20700
C179        C  0.46943064  0.05713768  0.88994070    -0.20700
C180        C  0.46967677  0.07843926  0.92601491    -0.20700
C181        C  0.48977404  0.42123547  0.00388298    -0.16100
C182        C  0.49008566  0.50112263  0.87911436    -0.16100
C183        C  0.48961922  0.07695460  0.01345322    -0.16000
C184        C  0.48925348  0.49714318  0.13169374    -0.16000
H185        H  0.52320005  0.39974142  0.91141638     0.16900
H186        H  0.52315891  0.44275595  0.84397005     0.16900
H187        H  0.51888967  0.05385867  0.17305903     0.16900
H188        H  0.52271435  0.09637883  0.10487481     0.16900
H189        H  0.46713534  0.39630837  0.09811221     0.15100
H190        H  0.46744897  0.43737091  0.16734520     0.15100
H191        H  0.46152042  0.06168367  0.85236915     0.15100
H192        H  0.46168371  0.10261629  0.92136159     0.15100
H193        H  0.47139665  0.48221925  0.97565718     0.28400
H194        H  0.46693515  0.01758308  0.04352264     0.28400
N195        N  0.49908520  0.46665382  0.56014315    -0.34400
N196        N  0.47918859  0.03200716  0.56738731    -0.54900
N197        N  0.48126611  0.03268058  0.45985596    -0.34400
N198        N  0.49377986  0.46584340  0.45233725    -0.54900
C199        C  0.48995539  0.47144819  0.60806583     0.29200
C200        C  0.49482395  0.43650724  0.55206435     0.29200
C201        C  0.46854865  0.06217182  0.46933738     0.29200
C202        C  0.47240439  0.02752588  0.41256674     0.29200
C203        C  0.48764020  0.02738881  0.61508086     0.37800
C204        C  0.48208788  0.06234169  0.55891963     0.37800
C205        C  0.50568306  0.43614300  0.46131665     0.37800
C206        C  0.49909293  0.47036010  0.40384314     0.37800
C207        C  0.48036433  0.44394269  0.63063154    -0.19600
C208        C  0.48335709  0.42195732  0.59542261    -0.19600
C209        C  0.45167302  0.07599475  0.42738554    -0.19600
C210        C  0.45433653  0.05424487  0.39164354    -0.19600
C211        C  0.49549489  0.05492362  0.63700380    -0.20700
C212        C  0.49206454  0.07701339  0.60153841    -0.20700
C213        C  0.51828958  0.42173297  0.41816084    -0.20700
C214        C  0.51376676  0.44328239  0.38187139    -0.20700
C215        C  0.49161789  0.49974727  0.63229352    -0.16100
C216        C  0.50309450  0.42132090  0.50736659    -0.16100
C217        C  0.48919026  0.49829418  0.37892468    -0.16000
C218        C  0.47372470  0.07741256  0.51407100    -0.16000
H219        H  0.47200715  0.44008318  0.66855440     0.17700
H220        H  0.47771649  0.39789584  0.60121278     0.16900
H221        H  0.43881854  0.09939867  0.42284229     0.16900
H222        H  0.44406785  0.05772728  0.35447286     0.16900
H223        H  0.50269952  0.05874610  0.67468380     0.15100
H224        H  0.49635057  0.10118270  0.60670429     0.15100
H225        H  0.52954572  0.39808879  0.41313046     0.15100
H226        H  0.52071874  0.43945983  0.34370711     0.15100
H227        H  0.51235321  0.48214908  0.53525669     0.28400
H228        H  0.49947725  0.01792761  0.48315660     0.28400
C229        C  0.49110490  0.49986496  0.68561109    -0.16300
C230        C  0.49079840  0.50034557  0.72975735     0.07800
C231        C  0.49049118  0.50101480  0.78166672     0.09700
C232        C  0.49025360  0.50136577  0.82581806    -0.17100
C233        C  0.48851768  0.49818652  0.32553804    -0.16300
C234        C  0.48837443  0.49785084  0.28132967     0.07800
C235        C  0.48858119  0.49732348  0.22931258     0.09700
C236        C  0.48891190  0.49698222  0.18509699    -0.17100
C237        C  0.00197433  0.49864076  0.82343510    -0.16300
C238        C  0.00295958  0.49927549  0.77919094     0.07800
C239        C  0.00496768  0.50068306  0.72715106     0.09700
C240        C  0.00670092  0.50174441  0.68291978    -0.17100
C241        C  0.00995777  0.50167136  0.18305430    -0.16300
C242        C  0.01068880  0.50137632  0.22726053     0.07800
C243        C  0.01183063  0.50077815  0.27926196     0.09700
C244        C  0.01274440  0.50037337  0.32345841    -0.17100
C245        C  0.49746374  0.12894507  0.48848792    -0.14200
C246        C  0.46888972  0.11141936  0.51510470    -0.29400
H247        H  0.52310696  0.11807618  0.46382110     0.14800
H248        H  0.44457456  0.12192745  0.54145253     0.15400
C249        C  0.48007276  0.36938184  0.48671276    -0.14200
C250        C  0.50907990  0.38742127  0.50973970    -0.29400
H251        H  0.45224370  0.37979876  0.46507472     0.14800
H252        H  0.53575433  0.37743126  0.53322433     0.15400
C253        C  0.48978382  0.11097421  0.01542619    -0.14200
C254        C  0.51777088  0.12766385  0.98645183    -0.29400
H255        H  0.46741446  0.12227138  0.04271178     0.14800
H256        H  0.54212822  0.11616423  0.96118099     0.15400
C257        C  0.51594403  0.36726403  0.01934879    -0.14200
C258        C  0.48526452  0.38759057  0.99967283    -0.29400
H259        H  0.54292007  0.37527571  0.04273860     0.14800
H260        H  0.45931233  0.37974494  0.97495051     0.15400
C261        C  0.51029012  0.25010570  0.67354481    -0.16300
C262        C  0.51662136  0.25165456  0.71601665     0.07800
C263        C  0.52291816  0.25400106  0.76571437     0.09700
C264        C  0.52559360  0.25524104  0.80873428    -0.17100
C265        C  0.48866512  0.24604058  0.30959876    -0.16300
C266        C  0.48964467  0.24397527  0.26665289     0.07800
C267        C  0.49300553  0.24163244  0.21663390     0.09700
C268        C  0.49708468  0.24074412  0.17368650    -0.17100
C269        C  0.02666339  0.11198027  0.47761952    -0.14200
C270        C  0.99635852  0.13001397  0.50341773    -0.29400
H271        H  0.05009626  0.12199894  0.45080142     0.14800
H272        H  0.97151865  0.11961133  0.52843597     0.15400
C273        C  0.98964466  0.37131621  0.48288958    -0.14200
C274        C  0.01709095  0.38901760  0.50866504    -0.29400
H275        H  0.96558446  0.38205401  0.45728544     0.14800
H276        H  0.03960968  0.37858842  0.53594409     0.15400
C277        C  0.67608968  0.25212063  0.48157408    -0.16300
C278        C  0.71839579  0.25259129  0.48059811     0.07800
C279        C  0.76795720  0.25270098  0.48070784     0.09700
C280        C  0.81025006  0.25240939  0.48202786    -0.17100
C281        C  0.17480745  0.24977769  0.50913405    -0.16300
C282        C  0.21718375  0.25012896  0.50992994     0.07800
C283        C  0.26692943  0.25021393  0.50897275     0.09700
C284        C  0.30937640  0.24995993  0.50696442    -0.17100
C285        C  0.99790151  0.11104395  0.98948600    -0.14200
C286        C  0.02555252  0.12944690  0.01359342    -0.29400
H287        H  0.97209220  0.12084833  0.96484298     0.14800
H288        H  0.05280459  0.11942061  0.03637728     0.15400
C289        C  0.99712131  0.38873542  0.01048641    -0.14200
C290        C  0.02064743  0.36923082  0.98057747    -0.29400
H291        H  0.97524314  0.37979361  0.03965847     0.14800
H292        H  0.04456262  0.37816562  0.95316480     0.15400
C293        C  0.83147830  0.24861341  0.00391786    -0.16300
C294        C  0.78920714  0.24742036  0.00340895     0.07800
C295        C  0.73972578  0.24598040  0.00190630     0.09700
C296        C  0.69747712  0.24514683  0.00030146    -0.17100
C297        C  0.33208299  0.25265058  0.97600973    -0.16300
C298        C  0.28979395  0.25151653  0.97535518     0.07800
C299        C  0.24029566  0.24948516  0.97692744     0.09700
C300        C  0.19803592  0.24810811  0.97935422    -0.17100
C301        C  0.99248436  0.24428722  0.81374010    -0.16300
C302        C  0.98603925  0.24663580  0.77123503     0.07800
C303        C  0.98115164  0.25045378  0.72134838     0.09700
C304        C  0.97984223  0.25285937  0.67824002    -0.17100
C305        C  0.01955113  0.25952856  0.17627088    -0.16300
C306        C  0.02108845  0.25940578  0.21932933     0.07800
C307        C  0.02096945  0.25688154  0.26950752     0.09700
C308        C  0.01770778  0.25391171  0.31237610    -0.17100
O309        O  0.99949131  0.72937711  0.89439515    -0.76300
C310        C  0.01966621  0.66450463  0.01446431     0.84800
O311        O  0.89326023  0.76851762  0.01301444    -0.77400
O312        O  0.02246426  0.73465187  0.12122217    -0.78900
O313        O  0.12288163  0.76847032  0.98601333    -0.78600
O314        O  0.04667955  0.76902413  0.89624468    -0.77300
Zn315      Zn  0.97806210  0.72153638  0.96317907     1.55700
O316        O  0.11935542  0.73546273  0.04783152    -0.78700
Cd317      Cd  0.05289788  0.77696175  0.96859854     1.59700
Cd318      Cd  0.95979733  0.77585336  0.03834663     1.59600
O319        O  0.03622897  0.82278555  0.98141500    -0.78700
O320        O  0.00933855  0.74974929  0.00484064    -1.89200
Cd321      Cd  0.04837029  0.72627156  0.05264162     1.59900
O322        O  0.97306495  0.82182562  0.03058085    -0.78600
O323        O  0.04352441  0.68005031  0.04286423    -0.77300
C324        C  0.87864526  0.74811726  0.98529886     0.85300
C325        C  0.02488863  0.74910569  0.87348296     0.84900
O326        O  0.99327245  0.67719852  0.98267843    -0.76200
C327        C  0.14263237  0.75199386  0.01851042     0.85700
O328        O  0.90664184  0.72851828  0.96498152    -0.76300
C329        C  0.00400667  0.83640145  0.00683937     0.85900
C330        C  0.98604415  0.74917816  0.13751778     0.86200
O331        O  0.95841385  0.76509506  0.11094540    -0.78700
O332        O  0.01811678  0.82477558  0.51730368    -0.76300
C333        C  0.00798044  0.75711968  0.63597892     0.84800
O334        O  0.09793334  0.72934047  0.46753437    -0.77400
O335        O  0.96290198  0.68231222  0.54707999    -0.78900
O336        O  0.87369356  0.77290560  0.49364142    -0.78600
O337        O  0.95616803  0.82367200  0.46982313    -0.77300
Zn338      Zn  0.03298745  0.78028124  0.53519507     1.55700
O339        O  0.88021370  0.73899979  0.55406203    -0.78700
Cd340      Cd  0.94234780  0.77775293  0.46894058     1.59700
Cd341      Cd  0.02611140  0.72267857  0.46545418     1.59600
O342        O  0.94641265  0.76402037  0.39837332    -0.78700
O343        O  0.98919032  0.75280894  0.50670256    -1.89200
Cd344      Cd  0.95248783  0.72904779  0.55561923     1.59900
O345        O  0.00457833  0.72805962  0.39531844    -0.78600
O346        O  0.97729024  0.73900816  0.62217035    -0.77300
C347        C  0.12085697  0.74945992  0.48870906     0.85300
C348        C  0.98743657  0.83829340  0.49080956     0.84900
O349        O  0.03048084  0.77442511  0.60719368    -0.76200
C350        C  0.85542890  0.75661548  0.52694103     0.85700
O351        O  0.10051497  0.77022691  0.51435016    -0.76300
C352        C  0.97283205  0.74481336  0.37543319     0.85900
C353        C  0.98900459  0.66590571  0.51888444     0.86200
O354        O  0.01537365  0.67768816  0.48636142    -0.78700
O355        O  0.54099202  0.81662158  0.03771096    -0.76300
C356        C  0.52338645  0.73818006  0.12973276     0.84800
O357        O  0.62018177  0.73164190  0.95265871    -0.77400
O358        O  0.48488250  0.67523729  0.01781526    -0.78900
O359        O  0.39730631  0.77124100  0.98812131    -0.78600
O360        O  0.47961793  0.82388860  0.98996587    -0.77300
Zn361      Zn  0.55565157  0.77081849  0.03809444     1.55700
O362        O  0.40200950  0.73001718  0.03602671    -0.78700
Cd363      Cd  0.46666631  0.77951376  0.96927848     1.59700
Cd364      Cd  0.54840073  0.72452132  0.94996599     1.59600
O365        O  0.47111258  0.77523255  0.89515924    -0.78700
O366        O  0.51170884  0.74905965  0.99953758    -1.89200
Cd367      Cd  0.47364990  0.72002074  0.03904121     1.59900
O368        O  0.52415792  0.73678664  0.88284166    -0.78600
O369        O  0.49282612  0.72257922  0.10957774    -0.77300
C370        C  0.64344072  0.74740337  0.98147660     0.85300
C371        C  0.51031725  0.83423937  0.01772807     0.84900
O372        O  0.54947363  0.75654425  0.10676325    -0.76200
C373        C  0.37813340  0.75086478  0.01418755     0.85700
O374        O  0.62343750  0.76309592  0.01517694    -0.76300
C375        C  0.49408745  0.75665697  0.86757652     0.85900
C376        C  0.51177254  0.66249927  0.98589685     0.86200
O377        O  0.53848831  0.67789527  0.95814111    -0.78700
O378        O  0.50276487  0.82165446  0.52434215    -0.76300
C379        C  0.47416957  0.74794353  0.63063987     0.84800
O380        O  0.60785076  0.73380750  0.48944908    -0.77400
O381        O  0.46624408  0.67459745  0.51819003    -0.78900
O382        O  0.37926935  0.76352312  0.46046000    -0.78600
O383        O  0.45597048  0.81910877  0.46125826    -0.77300
Zn384      Zn  0.51995727  0.77726815  0.54171775     1.55700
O385        O  0.37739444  0.72748721  0.51798588    -0.78700
Cd386      Cd  0.45020349  0.77248059  0.45276495     1.59700
Cd387      Cd  0.54134965  0.72404969  0.46645831     1.59600
O388        O  0.47262353  0.76128141  0.38381630    -0.78700
O389        O  0.49002563  0.74880158  0.49975821    -1.89200
Cd390      Cd  0.44791836  0.71987576  0.53489378     1.59900
O391        O  0.53855277  0.73253281  0.39395426    -0.78600
O392        O  0.45380902  0.72717240  0.60810468    -0.77300
C393        C  0.62096323  0.75403126  0.51833801     0.85300
C394        C  0.47778438  0.83458480  0.49164258     0.84900
O395        O  0.49845309  0.76813513  0.60950015    -0.76200
C396        C  0.35677580  0.74538837  0.48789339     0.85700
O397        O  0.59158035  0.77215765  0.53994995    -0.76300
C398        C  0.50849395  0.74620281  0.36734267     0.85900
C399        C  0.50034619  0.66211479  0.49385478     0.86200
O400        O  0.53221539  0.67771354  0.47371504    -0.78700
N401        N  0.02563717  0.96789033  0.93297082    -0.34400
N402        N  0.00305449  0.53251494  0.94807315    -0.54900
N403        N  0.00933950  0.53387638  0.05549222    -0.34400
N404        N  0.02089065  0.96573507  0.04085979    -0.54900
C405        C  0.01760502  0.97363014  0.88536098     0.29200
C406        C  0.01998791  0.93773553  0.94107658     0.29200
C407        C  0.99876189  0.56369838  0.04559839     0.29200
C408        C  0.00240273  0.52933586  0.10389466     0.29200
C409        C  0.00746550  0.52767550  0.89970034     0.37800
C410        C  0.00667428  0.56288489  0.95450533     0.37800
C411        C  0.03135824  0.93597214  0.03123081     0.37800
C412        C  0.02740215  0.96949310  0.08895241     0.37800
C413        C  0.00731115  0.94669112  0.86286887    -0.19600
C414        C  0.00864874  0.92410962  0.89792648    -0.19600
C415        C  0.98557710  0.57830834  0.08845650    -0.19600
C416        C  0.98820040  0.55676349  0.12507986    -0.19600
C417        C  0.01358094  0.55507334  0.87539386    -0.20700
C418        C  0.01313835  0.57730176  0.90993889    -0.20700
C419        C  0.04445227  0.92083525  0.07352710    -0.20700
C420        C  0.04162192  0.94194796  0.10997289    -0.20700
C421        C  0.02106917  0.00227408  0.86136047    -0.16100
C422        C  0.02704133  0.92175117  0.98554043    -0.16100
C423        C  0.01819541  0.99705812  0.11457870    -0.16000
C424        C  0.00143067  0.57836873  0.99928965    -0.16000
H425        H  0.99958743  0.94360166  0.82511771     0.16900
H426        H  0.00215628  0.90027273  0.89212167     0.16900
H427        H  0.97470239  0.60204793  0.09307134     0.16900
H428        H  0.97993266  0.56079132  0.16294744     0.16900
H429        H  0.01710820  0.55878276  0.83672011     0.15100
H430        H  0.01672936  0.60144630  0.90282158     0.15100
H431        H  0.05491703  0.89698065  0.07790701     0.15100
H432        H  0.04909701  0.93748815  0.14766406     0.15100
H433        H  0.03901510  0.98282731  0.95753529     0.28400
H434        H  0.02428008  0.51825519  0.03108478     0.28400
N435        N  0.02337228  0.96943910  0.54506956    -0.34400
N436        N  0.01860983  0.96600551  0.43767199    -0.54900
N437        N  0.01391114  0.53357305  0.44873147    -0.34400
N438        N  0.00758610  0.53473174  0.55642621    -0.54900
C439        C  0.01359716  0.93977362  0.53942514     0.29200
C440        C  0.01617333  0.97617241  0.59262576     0.29200
C441        C  0.00520701  0.52840938  0.40139934     0.29200
C442        C  0.00397706  0.56352803  0.45716412     0.29200
C443        C  0.02351118  0.93588750  0.44880962     0.37800
C444        C  0.02446114  0.96866433  0.38889238     0.37800
C445        C  0.01547011  0.52987682  0.60423043     0.37800
C446        C  0.01719040  0.56421505  0.54664323     0.37800
C447        C  0.00028766  0.92745022  0.58398210    -0.19600
C448        C  0.00188226  0.95036401  0.61742620    -0.19600
C449        C  0.98974430  0.55548402  0.37957390    -0.19600
C450        C  0.98887668  0.57757328  0.41465565    -0.19600
C451        C  0.03192151  0.91935391  0.40671791    -0.20700
C452        C  0.03219691  0.94003711  0.36889358    -0.20700
C453        C  0.02962076  0.55647643  0.62503563    -0.20700
C454        C  0.03115832  0.57811064  0.58857314    -0.20700
C455        C  0.01893060  0.92283734  0.49604036    -0.16100
C456        C  0.02488855  0.00438585  0.61470849    -0.16100
C457        C  0.01145264  0.57909939  0.50097260    -0.16000
C458        C  0.02101950  0.99646435  0.36204603    -0.16000
H459        H  0.99073226  0.90420947  0.59176902     0.16900
H460        H  0.99397323  0.94812118  0.65576633     0.16900
H461        H  0.98042482  0.55904816  0.34213605     0.16900
H462        H  0.97866643  0.60140465  0.40927333     0.16900
H463        H  0.03727915  0.89488015  0.40340771     0.15100
H464        H  0.03763352  0.93460852  0.33102314     0.15100
H465        H  0.03843443  0.55983894  0.66243001     0.15100
H466        H  0.04156403  0.60140296  0.59263143     0.15100
H467        H  0.03920029  0.98299390  0.51891739     0.28400
H468        H  0.03080576  0.51857634  0.47259824     0.28400
N469        N  0.48293380  0.96737577  0.95887801    -0.34400
N470        N  0.48574453  0.96547757  0.06661469    -0.54900
N471        N  0.48684412  0.53112530  0.05929221    -0.34400
N472        N  0.49090553  0.53300222  0.95167144    -0.54900
C473        C  0.48994635  0.93706039  0.96703676     0.29200
C474        C  0.49092009  0.97262925  0.91084994     0.29200
C475        C  0.49558904  0.52528161  0.10674877     0.29200
C476        C  0.49526628  0.56090723  0.05048249     0.29200
C477        C  0.47957991  0.93553152  0.05794269     0.37800
C478        C  0.47938290  0.96953292  0.11505137     0.37800
C479        C  0.48254488  0.52898757  0.90407355     0.37800
C480        C  0.48137617  0.56286503  0.96103354     0.37800
C481        C  0.50207241  0.92287782  0.92352752    -0.19600
C482        C  0.50264900  0.94523711  0.88824843    -0.19600
C483        C  0.50942950  0.55177111  0.12829932    -0.19600
C484        C  0.50936090  0.57414836  0.09293051    -0.19600
C485        C  0.46996374  0.92045755  0.10127285    -0.20700
C486        C  0.46998557  0.94189977  0.13730671    -0.20700
C487        C  0.46804684  0.55644915  0.88298865    -0.20700
C488        C  0.46692127  0.57783945  0.91906903    -0.20700
C489        C  0.48355925  0.92130183  0.01182444    -0.16100
C490        C  0.48572328  0.00115499  0.88637302    -0.16100
C491        C  0.48776415  0.57709425  0.00625019    -0.16000
C492        C  0.48447774  0.99748672  0.13966726    -0.16000
H493        H  0.50965636  0.89879068  0.91764991     0.16900
H494        H  0.51058539  0.94165461  0.85020230     0.16900
H495        H  0.51847508  0.55474536  0.16572122     0.16900
H496        H  0.51836671  0.59763702  0.09810432     0.16900
H497        H  0.46359019  0.89645902  0.10654412     0.15100
H498        H  0.46398780  0.93758549  0.17554361     0.15100
H499        H  0.45900984  0.56060049  0.84560429     0.15100
H500        H  0.45656073  0.60171211  0.91472159     0.15100
H501        H  0.46865233  0.98284460  0.98387648     0.28400
H502        H  0.47101150  0.51675413  0.03553120     0.28400
N503        N  0.48951860  0.96620829  0.56707593    -0.34400
N504        N  0.48513119  0.53184901  0.55899369    -0.54900
N505        N  0.48684830  0.53163764  0.45100358    -0.34400
N506        N  0.48473523  0.96641143  0.45994575    -0.54900
C507        C  0.48149501  0.97091504  0.61518542     0.29200
C508        C  0.48390290  0.93618695  0.55866371     0.29200
C509        C  0.47406052  0.56119191  0.45971273     0.29200
C510        C  0.47931334  0.52624790  0.40348643     0.29200
C511        C  0.49218138  0.52802925  0.60711170     0.37800
C512        C  0.48569806  0.56219138  0.54988034     0.37800
C513        C  0.49607307  0.93649124  0.46823488     0.37800
C514        C  0.49190214  0.97163640  0.41182984     0.37800
C515        C  0.47097215  0.94350551  0.63756947    -0.19600
C516        C  0.47232100  0.92167837  0.60204715    -0.19600
C517        C  0.45883329  0.57489954  0.41702846    -0.19600
C518        C  0.46221706  0.55293302  0.38165714    -0.19600
C519        C  0.49678452  0.55607048  0.62867693    -0.20700
C520        C  0.49273981  0.57767153  0.59253629    -0.20700
C521        C  0.51055170  0.92278798  0.42506497    -0.20700
C522        C  0.50748614  0.94489225  0.38946340    -0.20700
C523        C  0.48560026  0.99895456  0.63973279    -0.16100
C524        C  0.49181745  0.92104551  0.51373792    -0.16100
C525        C  0.48213769  0.99977061  0.38736900    -0.16000
C526        C  0.47745760  0.57658912  0.50449226    -0.16000
H527        H  0.46333508  0.93957322  0.67562570     0.17700
H528        H  0.46584616  0.89771745  0.60774717     0.16900
H529        H  0.44665090  0.59838504  0.41178543     0.16900
H530        H  0.45314203  0.55627772  0.34410711     0.16900
H531        H  0.50206324  0.56054243  0.66655399     0.15100
H532        H  0.49443543  0.60208537  0.59729285     0.15100
H533        H  0.52232339  0.89929630  0.41951692     0.15100
H534        H  0.51596424  0.94164794  0.35144865     0.15100
H535        H  0.50312133  0.98165616  0.54234495     0.28400
H536        H  0.50401215  0.51706846  0.47517899     0.28400
C537        C  0.48637061  0.99878767  0.69299196    -0.16300
C538        C  0.48677641  0.99958653  0.73708676     0.07800
C539        C  0.48669197  0.00083771  0.78893217     0.09700
C540        C  0.48623754  0.00148648  0.83306386    -0.17100
C541        C  0.48124317  0.99992485  0.33389451    -0.16300
C542        C  0.48116392  0.99931179  0.28962535     0.07800
C543        C  0.48189718  0.99827004  0.23750117     0.09700
C544        C  0.48304332  0.99757142  0.19321202    -0.17100
C545        C  0.02222447  0.00327921  0.80807944    -0.16300
C546        C  0.02331207  0.00435099  0.76394885     0.07800
C547        C  0.02444685  0.00538917  0.71205594     0.09700
C548        C  0.02502300  0.00558095  0.66791118    -0.17100
C549        C  0.01838431  0.99627295  0.16804694    -0.16300
C550        C  0.01891490  0.99572065  0.21230104     0.07800
C551        C  0.01969601  0.99531214  0.26438870     0.09700
C552        C  0.02031158  0.99539951  0.30863581    -0.17100
C553        C  0.50376426  0.62860985  0.48831158    -0.14200
C554        C  0.47024449  0.61032123  0.50499994    -0.29400
H555        H  0.53509144  0.61854164  0.47066418     0.14800
H556        H  0.43944846  0.61988136  0.52416615     0.15400
C557        C  0.47331687  0.86836705  0.48817699    -0.14200
C558        C  0.49760321  0.88691785  0.51595373    -0.29400
H559        H  0.44915422  0.87831246  0.46197092     0.14800
H560        H  0.52030670  0.87694958  0.54347303     0.15400
C561        C  0.48532902  0.61110965  0.00884030    -0.14200
C562        C  0.51236510  0.62891627  0.98070609    -0.29400
H563        H  0.46325142  0.62141859  0.03730488     0.14800
H564        H  0.53607716  0.61848865  0.95373222     0.15400
C565        C  0.51115543  0.86749567  0.02702508    -0.14200
C566        C  0.47923921  0.88756189  0.00857695    -0.29400
H567        H  0.53943232  0.87584456  0.04836501     0.14800
H568        H  0.45212757  0.87942327  0.98549082     0.15400
C569        C  0.47044719  0.74874819  0.68205735    -0.16300
C570        C  0.47150639  0.75125962  0.72515506     0.07800
C571        C  0.47718901  0.75499082  0.77491793     0.09700
C572        C  0.48454969  0.75713754  0.81724697    -0.17100
C573        C  0.51508933  0.74383203  0.31655439    -0.16300
C574        C  0.52067127  0.74062549  0.27391305     0.07800
C575        C  0.52558157  0.73724800  0.22393047     0.09700
C576        C  0.52675525  0.73624271  0.18074160    -0.17100
C577        C  0.01467206  0.61298509  0.49722795    -0.14200
C578        C  0.98800946  0.63231128  0.52469328    -0.29400
H579        H  0.03685710  0.62206569  0.46841156     0.14800
H580        H  0.96414450  0.62315111  0.55193254     0.15400
C581        C  0.98761771  0.87173548  0.48335616    -0.14200
C582        C  0.02063171  0.88900118  0.50164865    -0.29400
H583        H  0.95985541  0.88256109  0.46209041     0.14800
H584        H  0.04740610  0.87865089  0.52466020     0.15400
C585        C  0.67058375  0.75642891  0.52645373    -0.16300
C586        C  0.71264479  0.75752959  0.53113107     0.07800
C587        C  0.76236270  0.75789003  0.53372205     0.09700
C588        C  0.80489651  0.75756544  0.53278050    -0.17100
C589        C  0.17145026  0.74836882  0.48447893    -0.16300
C590        C  0.21396472  0.74730328  0.48309556     0.07800
C591        C  0.26380404  0.74611795  0.48351167     0.09700
C592        C  0.30624958  0.74543467  0.48511141    -0.17100
C593        C  0.99540427  0.61232312  0.99622822    -0.14200
C594        C  0.02348090  0.63089253  0.01941142    -0.29400
H595        H  0.96960386  0.62201804  0.97147672     0.14800
H596        H  0.05010812  0.62105874  0.04312556     0.15400
C597        C  0.03065638  0.88774625  0.98324779    -0.14200
C598        C  0.00188559  0.87008465  0.00951886    -0.29400
H599        H  0.05533889  0.87736561  0.95712876     0.14800
H600        H  0.97551357  0.88080545  0.03353145     0.15400
C601        C  0.82874825  0.74698695  0.97773964    -0.16300
C602        C  0.78643109  0.74667206  0.97468197     0.07800
C603        C  0.73656069  0.74683203  0.97434987     0.09700
C604        C  0.69403260  0.74715087  0.97641547    -0.17100
C605        C  0.32765873  0.75122743  0.01863965    -0.16300
C606        C  0.28523931  0.75138552  0.02111424     0.07800
C607        C  0.23548172  0.75157319  0.02235912     0.09700
C608        C  0.19305767  0.75179216  0.02166312    -0.17100
C609        C  0.02777471  0.74976231  0.82207031    -0.16300
C610        C  0.02765479  0.75208187  0.77886552     0.07800
C611        C  0.02406730  0.75544453  0.72870566     0.09700
C612        C  0.01796691  0.75738535  0.68606378    -0.17100
C613        C  0.97572620  0.74723656  0.18799356    -0.16300
C614        C  0.96955620  0.74501409  0.23086582     0.07800
C615        C  0.96645490  0.74299792  0.28134788     0.09700
C616        C  0.96764652  0.74277031  0.32460772    -0.17100
loop_ 
_geom_bond_atom_site_label_1 
_geom_bond_atom_site_label_2 
_geom_bond_distance 
_geom_bond_site_symmetry_2 
_ccdc_geom_bond_type 
O1           C17   1.272   1_655  A
O1           Zn7   2.000       .  S
C2           O18   1.276   1_454  A
C2           O15   1.272       .  A
C2          C286   1.478       .  S
O3           C16   1.274       .  A
O3          Cd10   2.083       .  S
O4           C22   1.270       .  A
O4          Cd13   2.032       .  S
O5           C19   1.272       .  A
O5           Cd9   2.072       .  S
O6           C17   1.271       .  A
O6           Cd9   2.040       .  S
Zn7          O18   2.036       .  S
Zn7          O20   2.021       .  S
Zn7          O12   1.944   1_655  S
O8           C19   1.273   1_554  A
O8          Cd13   2.074       .  S
Cd9          O11   2.067       .  S
Cd9          O12   1.991       .  S
Cd10         O14   2.084       .  S
Cd10         O23   2.046       .  S
Cd10         O12   2.004   1_654  S
O11          C21   1.272       .  A
O12         Cd13   1.994   1_556  S
Cd13         O15   2.066       .  S
O14          C21   1.276   1_654  A
C16          O20   1.272   1_554  A
C16         C293   1.439       .  S
C17         C301   1.418   1_455  S
C19         C300   1.439       .  S
C21         C290   1.479       .  S
C22          O23   1.272   1_455  A
C22         C305   1.412       .  S
O24          C40   1.277   1_455  A
O24         Zn30   2.052       .  S
C25          O41   1.274   1_655  A
C25          O38   1.271       .  A
C25         C304   1.419       .  S
O26          C39   1.272       .  A
O26         Cd33   2.068       .  S
O27          C45   1.274       .  A
O27         Cd36   2.075       .  S
O28          C42   1.273       .  A
O28         Cd32   2.072       .  S
O29          C40   1.271       .  A
O29         Cd32   2.064       .  S
Zn30         O41   2.011       .  S
Zn30         O43   2.034       .  S
Zn30         O35   1.950   1_455  S
O31          C42   1.273       .  A
O31         Cd36   2.071       .  S
Cd32         O34   2.034       .  S
Cd32         O35   1.993       .  S
Cd33         O37   2.051       .  S
Cd33         O46   2.082       .  S
Cd33         O35   2.005   1_455  S
O34          C44   1.269   1_655  A
O35         Cd36   1.999       .  S
Cd36         O38   2.041       .  S
O37          C44   1.271       .  A
C39          O43   1.274       .  A
C39         C281   1.440       .  S
C40         C273   1.483       .  S
C42         C280   1.435       .  S
C44         C308   1.413       .  S
C45          O46   1.276   1_655  A
C45         C270   1.479       .  S
O47          C63   1.272       .  A
O47         Zn53   2.020       .  S
C48          O64   1.270       .  A
C48          O61   1.269       .  A
C48         C268   1.410       .  S
O49          C62   1.273       .  A
O49         Cd56   2.073       .  S
O50          C68   1.273   1_554  A
O50         Cd59   2.065       .  S
O51          C65   1.275       .  A
O51         Cd55   2.092       .  S
O52          C63   1.278   1_556  A
O52         Cd55   2.092       .  S
Zn53         O64   1.982       .  S
Zn53         O66   2.021       .  S
Zn53         O58   1.941   1_554  S
O54          C65   1.271   1_554  A
O54         Cd59   2.062       .  S
Cd55         O57   2.060       .  S
Cd55         O58   2.003       .  S
Cd56         O60   2.045       .  S
Cd56         O69   2.084       .  S
Cd56         O58   2.000       .  S
O57          C67   1.274       .  A
O58         Cd59   1.995   1_556  S
Cd59         O61   2.031       .  S
O60          C67   1.272       .  A
C62          O66   1.272   1_556  A
C62         C296   1.438   1_556  S
C63         C257   1.483       .  S
C65         C297   1.440       .  S
C67         C264   1.418       .  S
C68          O69   1.274       .  A
C68         C254   1.479       .  S
O70          C86   1.275       .  A
O70         Zn76   2.033       .  S
C71          O87   1.271       .  A
C71          O84   1.274       .  A
C71         C261   1.417       .  S
O72          C85   1.271       .  A
O72         Cd79   2.066       .  S
O73          C91   1.277       .  A
O73         Cd82   2.089       .  S
O74          C88   1.272       .  A
O74         Cd78   2.071       .  S
O75          C86   1.271       .  A
O75         Cd78   2.061       .  S
Zn76         O87   1.983       .  S
Zn76         O89   2.025       .  S
Zn76         O81   1.946       .  S
O77          C88   1.274       .  A
O77         Cd82   2.083       .  S
Cd78         O80   2.043       .  S
Cd78         O81   1.991       .  S
Cd79         O83   2.031       .  S
Cd79         O92   2.060       .  S
Cd79         O81   1.993       .  S
O80          C90   1.271       .  A
O81         Cd82   2.001       .  S
Cd82         O84   2.054       .  S
O83          C90   1.269       .  A
C85          O89   1.272       .  A
C85         C277   1.436       .  S
C86         C249   1.475       .  S
C88         C284   1.441       .  S
C90         C265   1.411       .  S
C91          O92   1.271       .  A
C91         C245   1.478       .  S
N93          C98   1.355   1_455  A
N93          C97   1.361   1_455  A
N93         H125   1.040       .  S
N94         C101   1.358       .  A
N94         C102   1.352       .  A
N95         C100   1.360       .  A
N95          C99   1.354       .  A
N95         H126   1.039       .  S
N96         C103   1.353       .  A
N96         C104   1.358       .  A
C97         C105   1.384       .  A
C97         C113   1.420   1_655  A
C98         C114   1.426   1_656  A
C98         C106   1.390       .  A
C99         C107   1.389   1_455  A
C99         C116   1.424   1_554  A
C100        C108   1.386   1_455  A
C100        C423   1.421   1_545  A
C101        C109   1.384       .  A
C101        C421   1.416       .  A
C102        C116   1.419       .  A
C102        C110   1.389       .  A
C103        C111   1.389       .  A
C103        C114   1.421       .  A
C104        C112   1.385       .  A
C104        C115   1.418       .  A
C105        C106   1.376       .  A
C105        H117   1.082       .  S
C106        H118   1.082       .  S
C107        C108   1.378       .  A
C107        H119   1.082       .  S
C108        H120   1.082       .  S
C109        C110   1.372       .  A
C109        H121   1.082       .  S
C110        H122   1.082       .  S
C111        C112   1.374       .  A
C111        H123   1.082       .  S
C112        H124   1.082       .  S
C113        C237   1.477       .  S
C113        C409   1.416       .  A
C114        C289   1.495   1_455  S
C115        C241   1.477       .  S
C115        C408   1.422       .  A
C116        C285   1.489   1_455  S
N127        C132   1.360       .  A
N127        C131   1.354       .  A
N127        H159   1.038       .  S
N128        C135   1.354       .  A
N128        C136   1.358       .  A
N129        C134   1.354       .  A
N129        C133   1.361       .  A
N129        H160   1.038       .  S
N130        C137   1.357       .  A
N130        C138   1.352       .  A
C131        C139   1.389   1_455  A
C131        C147   1.422       .  A
C132        C148   1.420       .  A
C132        C140   1.385   1_455  A
C133        C141   1.386       .  A
C133        C458   1.421   1_545  A
C134        C149   1.423       .  A
C134        C142   1.389       .  A
C135        C147   1.425       .  A
C135        C143   1.389       .  A
C136        C150   1.418       .  A
C136        C144   1.384       .  A
C137        C145   1.384       .  A
C137        C456   1.416       .  A
C138        C146   1.389       .  A
C138        C149   1.422       .  A
C139        C140   1.376       .  A
C139        H151   1.082       .  S
C140        H152   1.082       .  S
C141        C142   1.376       .  A
C141        H153   1.082   1_455  S
C142        H154   1.082   1_455  S
C143        C144   1.377       .  A
C143        H155   1.082       .  S
C144        H156   1.082       .  S
C145        C146   1.376       .  A
C145        H157   1.082       .  S
C146        H158   1.082       .  S
C147        C274   1.496       .  S
C148        C240   1.477       .  S
C148        C445   1.419       .  A
C149        C269   1.491       .  S
C150        C244   1.476       .  S
C150        C441   1.420       .  A
N161        C166   1.359       .  A
N161        C165   1.352       .  A
N161        H193   1.040       .  S
N162        C169   1.355       .  A
N162        C170   1.358       .  A
N163        C168   1.355       .  A
N163        C167   1.361       .  A
N163        H194   1.040       .  S
N164        C171   1.357       .  A
N164        C172   1.352       .  A
C165        C173   1.389       .  A
C165        C181   1.419   1_556  A
C166        C182   1.418       .  A
C166        C174   1.385       .  A
C167        C175   1.386       .  A
C167        C492   1.422   1_545  A
C168        C183   1.424       .  A
C168        C176   1.389       .  A
C169        C181   1.424       .  A
C169        C177   1.388       .  A
C170        C184   1.420       .  A
C170        C178   1.385       .  A
C171        C179   1.383       .  A
C171        C490   1.416       .  A
C172        C180   1.390       .  A
C172        C183   1.422   1_556  A
C173        C174   1.375       .  A
C173        H185   1.082       .  S
C174        H186   1.082       .  S
C175        C176   1.378       .  A
C175        H187   1.082       .  S
C176        H188   1.082       .  S
C177        C178   1.378       .  A
C177        H189   1.082       .  S
C178        H190   1.082       .  S
C179        C180   1.374       .  A
C179        H191   1.082       .  S
C180        H192   1.082       .  S
C181        C258   1.491   1_554  S
C182        C232   1.473       .  S
C182        C479   1.416       .  A
C183        C253   1.493       .  S
C184        C236   1.476       .  S
C184        C475   1.421       .  A
N195        C200   1.353       .  A
N195        C199   1.361       .  A
N195        H227   1.037       .  S
N196        C203   1.357       .  A
N196        C204   1.352       .  A
N197        C202   1.360       .  A
N197        C201   1.355       .  A
N197        H228   1.040       .  S
N198        C205   1.354       .  A
N198        C206   1.358       .  A
C199        C207   1.385       .  A
C199        C215   1.419       .  A
C200        C216   1.420       .  A
C200        C208   1.389       .  A
C201        C209   1.389       .  A
C201        C218   1.425       .  A
C202        C210   1.386       .  A
C202        C525   1.423   1_545  A
C203        C211   1.385       .  A
C203        C523   1.416   1_545  A
C204        C218   1.419       .  A
C204        C212   1.389       .  A
C205        C213   1.389       .  A
C205        C216   1.424       .  A
C206        C214   1.384       .  A
C206        C217   1.419       .  A
C207        C208   1.376       .  A
C207        H219   1.082       .  S
C208        H220   1.082       .  S
C209        C210   1.379       .  A
C209        H221   1.082       .  S
C210        H222   1.082       .  S
C211        C212   1.372       .  A
C211        H223   1.082       .  S
C212        H224   1.082       .  S
C213        C214   1.374       .  A
C213        H225   1.082       .  S
C214        H226   1.082       .  S
C215        C229   1.473       .  S
C215        C511   1.415       .  A
C216        C250   1.489       .  S
C217        C233   1.476       .  S
C217        C510   1.422       .  A
C218        C246   1.492       .  S
C229        C230   1.220       .  T
C230        C231   1.435       .  S
C231        C232   1.220       .  T
C233        C234   1.222       .  T
C234        C235   1.438       .  S
C235        C236   1.222       .  T
C237        C238   1.223       .  T
C238        C239   1.439       .  S
C239        C240   1.223       .  T
C241        C242   1.222       .  T
C242        C243   1.438       .  S
C243        C244   1.222       .  T
C245        C246   1.342       .  D
C245        H247   1.087       .  S
C246        H248   1.087       .  S
C249        C250   1.342       .  D
C249        H251   1.087       .  S
C250        H252   1.087       .  S
C253        C254   1.347   1_554  D
C253        H255   1.087       .  S
C254        H256   1.087       .  S
C257        C258   1.343   1_554  D
C257        H259   1.087       .  S
C258        H260   1.087       .  S
C261        C262   1.195       .  T
C262        C263   1.395       .  S
C263        C264   1.195       .  T
C265        C266   1.191       .  T
C266        C267   1.388       .  S
C267        C268   1.191       .  T
C269        C270   1.345   1_455  D
C269        H271   1.086       .  S
C270        H272   1.087       .  S
C273        C274   1.344   1_655  D
C273        H275   1.087       .  S
C274        H276   1.086       .  S
C277        C278   1.206       .  T
C278        C279   1.412       .  S
C279        C280   1.206       .  T
C281        C282   1.209       .  T
C282        C283   1.417       .  S
C283        C284   1.209       .  T
C285        C286   1.342   1_656  D
C285        H287   1.087       .  S
C286        H288   1.087       .  S
C289        C290   1.345   1_654  D
C289        H291   1.087       .  S
C290        H292   1.087       .  S
C293        C294   1.208       .  T
C294        C295   1.415       .  S
C295        C296   1.207       .  T
C297        C298   1.208       .  T
C298        C299   1.416       .  S
C299        C300   1.208       .  T
C301        C302   1.196       .  T
C302        C303   1.397       .  S
C303        C304   1.196       .  T
C305        C306   1.192       .  T
C306        C307   1.390       .  S
C307        C308   1.192       .  T
O309        C325   1.274   1_655  A
O309       Zn315   2.013       .  S
C310        O326   1.278   1_454  A
C310        O323   1.271       .  A
C310        C594   1.478       .  S
O311        C324   1.272   1_554  A
O311       Cd318   2.074       .  S
O312        C330   1.272   1_455  A
O312       Cd321   2.050       .  S
O313        C327   1.273   1_556  A
O313       Cd317   2.080       .  S
O314        C325   1.271       .  A
O314       Cd317   2.047       .  S
Zn315       O326   2.043       .  S
Zn315       O328   2.045       .  S
Zn315       O320   1.953   1_656  S
O316        C327   1.273       .  A
O316       Cd321   2.078       .  S
Cd317       O319   2.077       .  S
Cd317       O320   1.999   1_556  S
Cd318       O322   2.072       .  S
Cd318       O331   2.056       .  S
Cd318       O320   1.998   1_655  S
O319        C329   1.276   1_556  A
O320       Cd321   1.997       .  S
Cd321       O323   2.057       .  S
O322        C329   1.274   1_655  A
C324        O328   1.275       .  A
C324        C601   1.444       .  S
C325        C609   1.422       .  S
C327        C608   1.441       .  S
C329        C598   1.477       .  S
C330        O331   1.272       .  A
C330        C613   1.421       .  S
O332        C348   1.277   1_455  A
O332       Zn338   2.037       .  S
C333        O349   1.273       .  A
C333        O346   1.272   1_455  A
C333        C612   1.420       .  S
O334        C347   1.273       .  A
O334       Cd341   2.080       .  S
O335        C353   1.273       .  A
O335       Cd344   2.073       .  S
O336        C350   1.273       .  A
O336       Cd340   2.074       .  S
O337        C348   1.272       .  A
O337       Cd340   2.066       .  S
Zn338       O349   2.004       .  S
Zn338       O351   2.028       .  S
Zn338       O343   1.952   1_455  S
O339        C350   1.275       .  A
O339       Cd344   2.089       .  S
Cd340       O342   2.047       .  S
Cd340       O343   1.997       .  S
Cd341       O345   2.055       .  S
Cd341       O354   2.080       .  S
Cd341       O343   2.004   1_455  S
O342        C352   1.271       .  A
O343       Cd344   1.998       .  S
Cd344       O346   2.044       .  S
O345        C352   1.273   1_455  A
C347        O351   1.273       .  A
C347        C589   1.442       .  S
C348        C581   1.478       .  S
C350        C588   1.444       .  S
C352        C616   1.420       .  S
C353        O354   1.276   1_655  A
C353        C578   1.480       .  S
O355        C371   1.274       .  A
O355       Zn361   2.034       .  S
C356        O372   1.271       .  A
C356        O369   1.270       .  A
C356        C576   1.417       .  S
O357        C370   1.274       .  A
O357       Cd364   2.084       .  S
O358        C376   1.274   1_554  A
O358       Cd367   2.065       .  S
O359        C373   1.273   1_556  A
O359       Cd363   2.076       .  S
O360        C371   1.277   1_556  A
O360       Cd363   2.082       .  S
Zn361       O372   1.998       .  S
Zn361       O374   2.035       .  S
Zn361       O366   1.947   1_554  S
O362        C373   1.272       .  A
O362       Cd367   2.074       .  S
Cd363       O365   2.060       .  S
Cd363       O366   2.004       .  S
Cd364       O368   2.053       .  S
Cd364       O377   2.083       .  S
Cd364       O366   2.001       .  S
O365        C375   1.273       .  A
O366       Cd367   2.002   1_556  S
Cd367       O369   2.042       .  S
O368        C375   1.273       .  A
C370        O374   1.274   1_556  A
C370        C604   1.444       .  S
C371        C565   1.484       .  S
C373        C605   1.440       .  S
C375        C572   1.423       .  S
C376        O377   1.274       .  A
C376        C562   1.480       .  S
O378        C394   1.277       .  A
O378       Zn384   2.042       .  S
C379        O395   1.273       .  A
C379        O392   1.274       .  A
C379        C569   1.423       .  S
O380        C393   1.272       .  A
O380       Cd387   2.074       .  S
O381        C399   1.277       .  A
O381       Cd390   2.086       .  S
O382        C396   1.273       .  A
O382       Cd386   2.079       .  S
O383        C394   1.274       .  A
O383       Cd386   2.073       .  S
Zn384       O395   1.998       .  S
Zn384       O397   2.043       .  S
Zn384       O389   1.947       .  S
O385        C396   1.274       .  A
O385       Cd390   2.086       .  S
Cd386       O388   2.054       .  S
Cd386       O389   1.999       .  S
Cd387       O391   2.037       .  S
Cd387       O400   2.064       .  S
Cd387       O389   1.999       .  S
O388        C398   1.273       .  A
O389       Cd390   2.007       .  S
Cd390       O392   2.064       .  S
O391        C398   1.270       .  A
C393        O397   1.274       .  A
C393        C585   1.445       .  S
C394        C557   1.483       .  S
C396        C592   1.443       .  S
C398        C573   1.416       .  S
C399        O400   1.272       .  A
C399        C553   1.477       .  S
N401        C406   1.353       .  A
N401        C405   1.360       .  A
N401        H433   1.038       .  S
N402        C409   1.358       .  A
N402        C410   1.353       .  A
N403        C408   1.361       .  A
N403        C407   1.356   1_455  A
N403        H434   1.039       .  S
N404        C411   1.354       .  A
N404        C412   1.359       .  A
C405        C413   1.385       .  A
C405        C421   1.419   1_565  A
C406        C422   1.422       .  A
C406        C414   1.390       .  A
C407        C415   1.390       .  A
C407        C424   1.428   1_654  A
C408        C416   1.385   1_455  A
C409        C417   1.384       .  A
C410        C424   1.420       .  A
C410        C418   1.390       .  A
C411        C419   1.389       .  A
C411        C422   1.425   1_554  A
C412        C420   1.384       .  A
C412        C423   1.420       .  A
C413        C414   1.377       .  A
C413        H425   1.082   1_455  S
C414        H426   1.082       .  S
C415        C416   1.378       .  A
C415        H427   1.082       .  S
C416        H428   1.082       .  S
C417        C418   1.371       .  A
C417        H429   1.082       .  S
C418        H430   1.082       .  S
C419        C420   1.374       .  A
C419        H431   1.082       .  S
C420        H432   1.082       .  S
C421        C545   1.472       .  S
C422        C597   1.492       .  S
C423        C549   1.478       .  S
C424        C593   1.493   1_455  S
N435        C440   1.360       .  A
N435        C439   1.352       .  A
N435        H467   1.037       .  S
N436        C443   1.354       .  A
N436        C444   1.359       .  A
N437        C442   1.353       .  A
N437        C441   1.360       .  A
N437        H468   1.039       .  S
N438        C445   1.358       .  A
N438        C446   1.354       .  A
C439        C447   1.390       .  A
C439        C455   1.419       .  A
C440        C456   1.418   1_565  A
C440        C448   1.386       .  A
C441        C449   1.386   1_455  A
C442        C457   1.421       .  A
C442        C450   1.389   1_455  A
C443        C455   1.424       .  A
C443        C451   1.389       .  A
C444        C458   1.420       .  A
C444        C452   1.384       .  A
C445        C453   1.384       .  A
C446        C454   1.389       .  A
C446        C457   1.424       .  A
C447        C448   1.375       .  A
C447        H459   1.082   1_455  S
C448        H460   1.082   1_455  S
C449        C450   1.377       .  A
C449        H461   1.082       .  S
C450        H462   1.082       .  S
C451        C452   1.376       .  A
C451        H463   1.082       .  S
C452        H464   1.082       .  S
C453        C454   1.377       .  A
C453        H465   1.082       .  S
C454        H466   1.082       .  S
C455        C582   1.488       .  S
C456        C548   1.472       .  S
C457        C577   1.494       .  S
C458        C552   1.478       .  S
N469        C474   1.360       .  A
N469        C473   1.353       .  A
N469        H501   1.038       .  S
N470        C477   1.356       .  A
N470        C478   1.360       .  A
N471        C476   1.355       .  A
N471        C475   1.360       .  A
N471        H502   1.038       .  S
N472        C479   1.357       .  A
N472        C480   1.353       .  A
C473        C481   1.390       .  A
C473        C489   1.422   1_556  A
C474        C490   1.419   1_565  A
C474        C482   1.385       .  A
C475        C483   1.386       .  A
C476        C491   1.423       .  A
C476        C484   1.389       .  A
C477        C489   1.426       .  A
C477        C485   1.388       .  A
C478        C492   1.422       .  A
C478        C486   1.385       .  A
C479        C487   1.384       .  A
C480        C488   1.389       .  A
C480        C491   1.422   1_556  A
C481        C482   1.375       .  A
C481        H493   1.082       .  S
C482        H494   1.082       .  S
C483        C484   1.377       .  A
C483        H495   1.082       .  S
C484        H496   1.082       .  S
C485        C486   1.377       .  A
C485        H497   1.082       .  S
C486        H498   1.082       .  S
C487        C488   1.375       .  A
C487        H499   1.082       .  S
C488        H500   1.082       .  S
C489        C566   1.492       .  S
C490        C540   1.473       .  S
C491        C561   1.492       .  S
C492        C544   1.480       .  S
N503        C508   1.355       .  A
N503        C507   1.361       .  A
N503        H535   1.036       .  S
N504        C511   1.357       .  A
N504        C512   1.351       .  A
N505        C510   1.361       .  A
N505        C509   1.354       .  A
N505        H536   1.036       .  S
N506        C513   1.356       .  A
N506        C514   1.359       .  A
C507        C515   1.385       .  A
C507        C523   1.420       .  A
C508        C524   1.424       .  A
C508        C516   1.390       .  A
C509        C517   1.389       .  A
C509        C526   1.423       .  A
C510        C518   1.386       .  A
C511        C519   1.384       .  A
C512        C526   1.418       .  A
C512        C520   1.389       .  A
C513        C521   1.389       .  A
C513        C524   1.426       .  A
C514        C522   1.384       .  A
C514        C525   1.420       .  A
C515        C516   1.377       .  A
C515        H527   1.082       .  S
C516        H528   1.082       .  S
C517        C518   1.379       .  A
C517        H529   1.082       .  S
C518        H530   1.082       .  S
C519        C520   1.372       .  A
C519        H531   1.082       .  S
C520        H532   1.082       .  S
C521        C522   1.375       .  A
C521        H533   1.081       .  S
C522        H534   1.082       .  S
C523        C537   1.473       .  S
C524        C558   1.499       .  S
C525        C541   1.479       .  S
C526        C554   1.484       .  S
C537        C538   1.220       .  T
C538        C539   1.435   1_565  S
C539        C540   1.220       .  T
C541        C542   1.224       .  T
C542        C543   1.442       .  S
C543        C544   1.225       .  T
C545        C546   1.220       .  T
C546        C547   1.434       .  S
C547        C548   1.220       .  T
C549        C550   1.224       .  T
C550        C551   1.440       .  S
C551        C552   1.224       .  T
C553        C554   1.341       .  D
C553        H555   1.087       .  S
C554        H556   1.086       .  S
C557        C558   1.346       .  D
C557        H559   1.087       .  S
C558        H560   1.087       .  S
C561        C562   1.346   1_554  D
C561        H563   1.087       .  S
C562        H564   1.087       .  S
C565        C566   1.345       .  D
C565        H567   1.087       .  S
C566        H568   1.087   1_554  S
C569        C570   1.199       .  T
C570        C571   1.401       .  S
C571        C572   1.199       .  T
C573        C574   1.195       .  T
C574        C575   1.394       .  S
C575        C576   1.195       .  T
C577        C578   1.344   1_455  D
C577        H579   1.087       .  S
C578        H580   1.087       .  S
C581        C582   1.342   1_655  D
C581        H583   1.087       .  S
C582        H584   1.087       .  S
C585        C586   1.211       .  T
C586        C587   1.421       .  S
C587        C588   1.211       .  T
C589        C590   1.210       .  T
C590        C591   1.419       .  S
C591        C592   1.210       .  T
C593        C594   1.342   1_656  D
C593        H595   1.087       .  S
C594        H596   1.087       .  S
C597        C598   1.344   1_556  D
C597        H599   1.087       .  S
C598        H600   1.087   1_455  S
C601        C602   1.211       .  T
C602        C603   1.421       .  S
C603        C604   1.211       .  T
C605        C606   1.209       .  T
C606        C607   1.417       .  S
C607        C608   1.209       .  T
C609        C610   1.197       .  T
C610        C611   1.398       .  S
C611        C612   1.197       .  T
C613        C614   1.197       .  T
C614        C615   1.398       .  S
C615        C616   1.197       .  T
