geometry optimzed in LAMMPS
_audit_creation_date              2020-11-30 
_audit_creation_method            'lammps2cif' 
_symmetry_space_group_name_H-M    'P1' 
_symmetry_Int_Tables_number       1 
_symmetry_cell_setting            triclinic 
loop_ 
_symmetry_equiv_pos_as_xyz 
  x,y,z 
_cell_length_a                    49.21461712 
_cell_length_b                    49.33519613364449 
_cell_length_c                    54.59377105578988 
_cell_angle_alpha                 90.20711849071769 
_cell_angle_beta                  89.65645393909999 
_cell_angle_gamma                 120.81757204626993 
loop_ 
_atom_site_label 
_atom_site_type_symbol 
_atom_site_fract_x 
_atom_site_fract_y 
_atom_site_fract_z 
_atom_site_charge 
N1          N  0.99017980  0.68273579  0.30133686    -0.27100
N2          N  0.00821734  0.71181278  0.29305661    -0.34900
C3          C  0.99240985  0.71749859  0.27582154     0.01300
C4          C  0.96284550  0.69069438  0.27310192     0.07300
C5          C  0.96237065  0.66910604  0.28954748    -0.05800
H6          H  0.00219123  0.73935301  0.26571448     0.08000
H7          H  0.94317262  0.64530954  0.29291015     0.09200
Cu8        Cu  0.05335007  0.74276960  0.30535700     0.44200
Cu9        Cu  0.00345536  0.66297490  0.32876442     0.42000
Cu10       Cu  0.07833202  0.71627418  0.35719245     0.43900
N11         N  0.09696036  0.76946614  0.32163856    -0.34500
N12         N  0.10617500  0.75973597  0.34064930    -0.28700
C13         C  0.13559010  0.78235074  0.34689999    -0.04800
C14         C  0.14517404  0.80751520  0.33109670     0.07400
C15         C  0.12015035  0.79859638  0.31531398     0.01200
H16         H  0.14884721  0.78062162  0.36190726     0.08800
H17         H  0.11882517  0.81217311  0.30036192     0.07900
N18         N  0.04773611  0.67086968  0.36949918    -0.35900
N19         N  0.02064274  0.65101086  0.35882802    -0.28100
C20         C  0.00679156  0.62348389  0.37107392    -0.03300
C21         C  0.02616632  0.62608035  0.39041132     0.05300
C22         C  0.05184007  0.65661478  0.38883366     0.03400
H23         H  0.98431258  0.60309242  0.36615098     0.08500
H24         H  0.07189948  0.66807503  0.40101458     0.07300
N25         N  0.30136559  0.99388212  0.30570919    -0.27100
N26         N  0.27252963  0.97645677  0.29686534    -0.34900
C27         C  0.26828654  0.99257400  0.27903834     0.01300
C28         C  0.29583411  0.02178267  0.27633336     0.07300
C29         C  0.31620832  0.02162483  0.29381271    -0.05800
H30         H  0.24673432  0.98313720  0.26853986     0.08000
H31         H  0.34016541  0.03996189  0.29782122     0.09200
Cu32       Cu  0.24050167  0.93112529  0.30862753     0.44200
Cu33       Cu  0.31974575  0.97888849  0.33294722     0.42000
Cu34       Cu  0.26836263  0.90014006  0.35586989     0.43900
N35         N  0.21377137  0.88614214  0.32304910    -0.34500
N36         N  0.22405916  0.87496785  0.34034057    -0.28700
C37         C  0.20127269  0.84534896  0.34583892    -0.04800
C38         C  0.17545531  0.83749168  0.33123412     0.07400
C39         C  0.18412519  0.86383252  0.31697628     0.01200
H40         H  0.20344052  0.83069118  0.35942602     0.08800
H41         H  0.16997276  0.86668206  0.30331658     0.07900
N42         N  0.31303249  0.93023002  0.36945742    -0.35900
N43         N  0.33191356  0.95903457  0.36099131    -0.28100
C44         C  0.35855453  0.97298126  0.37427987    -0.03300
C45         C  0.35626088  0.95204501  0.39220715     0.05300
C46         C  0.32709176  0.92505702  0.38840340     0.03400
H47         H  0.37802132  0.99675947  0.37103165     0.08500
H48         H  0.31634434  0.90360822  0.39907596     0.07300
N49         N  0.99226854  0.30053631  0.69879511    -0.27100
N50         N  0.97242994  0.27354080  0.70965976    -0.34900
C51         C  0.98705058  0.26951764  0.72883578     0.01300
C52         C  0.01758643  0.29534636  0.73025023     0.07300
C53         C  0.01997145  0.31447349  0.71080611    -0.05800
H54         H  0.97618963  0.24922980  0.74084015     0.08000
H55         H  0.04058013  0.33649068  0.70523661     0.09200
Cu56       Cu  0.92677131  0.24308753  0.69728217     0.44200
Cu57       Cu  0.98118788  0.31656260  0.66752604     0.42000
Cu58       Cu  0.90409971  0.26510990  0.64093915     0.43900
N59         N  0.88340496  0.21565715  0.68019330    -0.34500
N60         N  0.87518608  0.22369729  0.65967708    -0.28700
C61         C  0.84631120  0.20032586  0.65295798    -0.04800
C62         C  0.83598407  0.17637157  0.67000814     0.07400
C63         C  0.85999290  0.18686790  0.68704243     0.01200
H64         H  0.83417840  0.20048736  0.63656793     0.08800
H65         H  0.86073271  0.17430089  0.70296033     0.07900
N66         N  0.93717225  0.30819036  0.62621680    -0.35900
N67         N  0.96514083  0.32716159  0.63603412    -0.28100
C68         C  0.98021793  0.35380896  0.62275256    -0.03300
C69         C  0.96085192  0.35154467  0.60349016     0.05300
C70         C  0.93373444  0.32215079  0.60637948     0.03400
H71         H  0.00313554  0.37366930  0.62749271     0.08500
H72         H  0.91276906  0.31165096  0.59512787     0.07300
N73         N  0.68618517  0.98780886  0.69723854    -0.27100
N74         N  0.71403800  0.00727259  0.70703158    -0.34900
C75         C  0.71885027  0.99274836  0.72584727     0.01300
C76         C  0.69271368  0.96253910  0.72797010     0.07300
C77         C  0.67252462  0.96036439  0.70947980    -0.05800
H78         H  0.73952907  0.00383819  0.73740113     0.08000
H79         H  0.64952220  0.94035466  0.70516009     0.09200
Cu80       Cu  0.74384886  0.05273610  0.69458833     0.44200
Cu81       Cu  0.66715476  0.99950958  0.66840427     0.42000
Cu82       Cu  0.71637019  0.07715007  0.64248304     0.43900
N83         N  0.76942167  0.09666064  0.67835444    -0.34500
N84         N  0.75967541  0.10551818  0.65912424    -0.28700
C85         C  0.78180949  0.13527179  0.65313849    -0.04800
C86         C  0.80654084  0.14555172  0.66948809     0.07400
C87         C  0.79793029  0.12051250  0.68519387     0.01200
H88         H  0.77989253  0.14842667  0.63813196     0.08800
H89         H  0.81136297  0.11958363  0.70041872     0.07900
N90         N  0.67096097  0.04547581  0.63070213    -0.35900
N91         N  0.65277311  0.01725238  0.64037116    -0.28100
C92         C  0.62477380  0.00284498  0.62883014    -0.03300
C93         C  0.62524946  0.02294078  0.61086482     0.05300
C94         C  0.65514122  0.04974891  0.61264644     0.03400
H95         H  0.60560828  0.97939076  0.63327739     0.08500
H96         H  0.66534026  0.07071006  0.60140648     0.07300
O97         O  0.44233741  0.95061427  0.48242645    -0.72700
O98         O  0.50574879  0.96769794  0.53499367    -0.73700
O99         O  0.44883602  0.96899655  0.53239137    -0.62300
O100        O  0.49948166  0.94979505  0.48470589    -0.70700
O101        O  0.52649407  0.00042127  0.47456659    -0.70300
O102        O  0.47600587  0.01937509  0.52157775    -0.61600
O103        O  0.53250712  0.01815078  0.52439940    -0.74100
O104        O  0.46945682  0.00109864  0.47186524    -0.72800
Cu105      Cu  0.47313631  0.95747742  0.50903719     1.04600
Cu106      Cu  0.50204280  0.01144996  0.49772210     1.04300
C107        C  0.44587103  0.97319805  0.46879826     0.93500
C108        C  0.52914475  0.99568086  0.53810164     0.92600
C109        C  0.45443660  0.99724975  0.53451872     0.84700
C110        C  0.52108725  0.97234426  0.47197454     0.91000
O111        O  0.00979007  0.52718089  0.52700922    -0.72700
O112        O  0.02541252  0.47679675  0.47713719    -0.73700
O113        O  0.02529273  0.53419369  0.47634659    -0.62300
O114        O  0.00982007  0.46962117  0.52756221    -0.70700
O115        O  0.95888421  0.44335779  0.51822685    -0.70300
O116        O  0.97430778  0.50795397  0.46717595    -0.61600
O117        O  0.97448059  0.45055920  0.46778249    -0.74100
O118        O  0.95880954  0.50076137  0.51780912    -0.72800
Cu119      Cu  0.01935034  0.50288104  0.50233620     1.04600
Cu120      Cu  0.96486054  0.47477185  0.49243084     1.04300
C121        C  0.98176168  0.52190230  0.53039510     0.93500
C122        C  0.00245404  0.45560231  0.46460958     0.92600
C123        C  0.00224700  0.53132048  0.46359811     0.84700
C124        C  0.98188557  0.44609626  0.53091678     0.91000
N125        N  0.65841592  0.01744601  0.02882505    -0.27100
N126        N  0.64127750  0.02907743  0.03729154    -0.34900
C127        C  0.65623229  0.04806854  0.05642216     0.01300
C128        C  0.68423982  0.04841599  0.06038245     0.07300
C129        C  0.68479600  0.02874689  0.04238124    -0.05800
H130        H  0.64748855  0.06113935  0.06625053     0.08000
H131        H  0.70296469  0.02291401  0.03936048     0.09200
Cu132      Cu  0.59846023  0.01885335  0.02226918     0.44200
Cu133      Cu  0.64513837  0.98749945  0.99873939     0.42000
Cu134      Cu  0.57343283  0.97133452  0.96690688     0.43900
N135        N  0.55601798  0.00479746  0.00470300    -0.34500
N136        N  0.54691583  0.98767521  0.98444422    -0.28700
C137        C  0.51793438  0.98182012  0.97832690    -0.04800
C138        C  0.50840216  0.99592819  0.99558082     0.07400
C139        C  0.53313005  0.01031454  0.01200484     0.01200
H140        H  0.50463352  0.96789979  0.96272993     0.08800
H141        H  0.53424058  0.02335760  0.02828045     0.07900
N142        N  0.60244155  0.95443902  0.95545874    -0.35900
N143        N  0.62821070  0.96010558  0.96727987    -0.28100
C144        C  0.64125081  0.94545728  0.95563713    -0.03300
C145        C  0.62297101  0.92979806  0.93538203     0.05300
C146        C  0.59842672  0.93593624  0.93596945     0.03400
H147        H  0.66225324  0.94580587  0.96186302     0.08500
H148        H  0.57914278  0.92773280  0.92310934     0.07300
N149        N  0.31850092  0.95480094  0.97407933    -0.27100
N150        N  0.33842677  0.94871531  0.96251176    -0.34900
C151        C  0.32416588  0.93121714  0.94255139     0.01300
C152        C  0.29369482  0.92604445  0.94130538     0.07300
C153        C  0.29099271  0.94131407  0.96179285    -0.05800
H154        H  0.33549536  0.92343121  0.92966604     0.08000
H155        H  0.27060160  0.94253906  0.96760119     0.09200
Cu156      Cu  0.38440682  0.96511760  0.97404730     0.44200
Cu157      Cu  0.33045238  0.98252867  0.00535119     0.42000
Cu158      Cu  0.41143829  0.01623148  0.02702916     0.43900
N159        N  0.42917539  0.98357260  0.98899753    -0.34500
N160        N  0.43899623  0.00206449  0.00850599    -0.28700
C161        C  0.46868378  0.00942366  0.01380157    -0.04800
C162        C  0.47798521  0.99490829  0.99674575     0.07400
C163        C  0.45237992  0.97874104  0.98129282     0.01200
H164        H  0.48236531  0.02413569  0.02896489     0.08800
H165        H  0.45058361  0.96430565  0.96575134     0.07900
N166        N  0.37895565  0.02657565  0.04197749    -0.35900
N167        N  0.34954303  0.01406036  0.03429817    -0.28100
C168        C  0.33494466  0.02588388  0.04759987    -0.03300
C169        C  0.35615361  0.04710538  0.06465765     0.05300
C170        C  0.38386364  0.04674528  0.06036258     0.03400
H171        H  0.31072696  0.01936070  0.04454101     0.08500
H172        H  0.40620802  0.06021437  0.06968493     0.07300
N173        N  0.96038606  0.32084396  0.03039893    -0.27100
N174        N  0.95179040  0.33957115  0.04077017    -0.34900
C175        C  0.93296836  0.32463247  0.06007895     0.01300
C176        C  0.92948705  0.29500899  0.06194423     0.07300
C177        C  0.94740107  0.29356649  0.04289475    -0.05800
H178        H  0.92280003  0.33480362  0.07192264     0.08000
H179        H  0.95023215  0.27386748  0.03807542     0.09200
Cu180      Cu  0.96538647  0.38428699  0.02802507     0.44200
Cu181      Cu  0.98848318  0.33248420  0.99931722     0.42000
Cu182      Cu  0.01382008  0.40894995  0.97324990     0.43900
N183        N  0.98159350  0.42750539  0.01117210    -0.34500
N184        N  0.99929275  0.43648775  0.99114375    -0.28700
C185        C  0.00516001  0.46522438  0.98449901    -0.04800
C186        C  0.99033844  0.47469893  0.00112199     0.07400
C187        C  0.97567503  0.45027252  0.01781408     0.01200
H188        H  0.01876675  0.47797456  0.96855020     0.08800
H189        H  0.96136913  0.44887905  0.03339408     0.07900
N190        N  0.02608441  0.37775880  0.95886346    -0.35900
N191        N  0.01698203  0.34984723  0.96847126    -0.28100
C192        C  0.02965463  0.33589277  0.95536954    -0.03300
C193        C  0.04777394  0.35601354  0.93651857     0.05300
C194        C  0.04470826  0.38230586  0.93934213     0.03400
H195        H  0.02641457  0.31306811  0.95968556     0.08500
H196        H  0.05498506  0.40329874  0.92811816     0.07300
N197        N  0.01673163  0.65576121  0.96929737    -0.27100
N198        N  0.02476400  0.63686169  0.95850317    -0.34900
C199        C  0.04365907  0.65197477  0.93927477     0.01300
C200        C  0.04768941  0.68188592  0.93784378     0.07300
C201        C  0.03027774  0.68338932  0.95728695    -0.05800
H202        H  0.05369871  0.64185064  0.92726702     0.08000
H203        H  0.02811762  0.70326454  0.96283740     0.09200
Cu204      Cu  0.01075797  0.59205948  0.97114342     0.44200
Cu205      Cu  0.98811787  0.64364835  0.00000555     0.42000
Cu206      Cu  0.96085957  0.56722376  0.02605029     0.43900
N207        N  0.99605865  0.55002281  0.98936412    -0.34500
N208        N  0.97821814  0.54108360  0.00934477    -0.28700
C209        C  0.97361338  0.51301966  0.01668745    -0.04800
C210        C  0.98926744  0.50393407  0.00054621     0.07400
C211        C  0.00323607  0.52792060  0.98346100     0.01200
H212        H  0.95983431  0.50020507  0.03255194     0.08800
H213        H  0.01756433  0.52928870  0.96790103     0.07900
N214        N  0.94787078  0.59850163  0.03963048    -0.35900
N215        N  0.95836089  0.62674772  0.03009426    -0.28100
C216        C  0.94671789  0.64179904  0.04302416    -0.03300
C217        C  0.92794508  0.62217134  0.06178386     0.05300
C218        C  0.92907086  0.59477569  0.05890952     0.03400
H219        H  0.95137406  0.66521501  0.03877370     0.08500
H220        H  0.91758424  0.57388851  0.07028088     0.07300
N221        N  0.99198553  0.29698546  0.29872887    -0.27100
N222        N  0.00987946  0.28659001  0.28959725    -0.34900
C223        C  0.99443730  0.26661799  0.27110759     0.01300
C224        C  0.96523592  0.26414925  0.26855115     0.07300
C225        C  0.96463259  0.28389679  0.28635473    -0.05800
H226        H  0.00413622  0.25519590  0.26021678     0.08000
H227        H  0.94553441  0.28807885  0.29038330     0.09200
Cu228      Cu  0.05423094  0.29975746  0.30281994     0.44200
Cu229      Cu  0.00503358  0.32752833  0.32802412     0.42000
Cu230      Cu  0.07855066  0.34837723  0.35761118     0.43900
N231        N  0.09773510  0.31707764  0.31934202    -0.34500
N232        N  0.10662776  0.33488463  0.33923525    -0.28700
C233        C  0.13619145  0.34245914  0.34506058    -0.04800
C234        C  0.14626419  0.32864203  0.32804670     0.07400
C235        C  0.12134349  0.31271578  0.31200853     0.01200
H236        H  0.14922407  0.35678964  0.36058491     0.08800
H237        H  0.12035898  0.29898134  0.29622314     0.07900
N238        N  0.04719115  0.36114992  0.37082085    -0.35900
N239        N  0.02079517  0.35426203  0.35949225    -0.28100
C240        C  0.00632458  0.36686489  0.37192603    -0.03300
C241        C  0.02431698  0.38235493  0.39234454     0.05300
C242        C  0.05013611  0.37818864  0.39093697     0.03400
H243        H  0.98463152  0.36525776  0.36597654     0.08500
H244        H  0.06978455  0.38694066  0.40349428     0.07300
N245        N  0.32740997  0.35610421  0.36244833    -0.27100
N246        N  0.30984261  0.36742282  0.37048510    -0.34900
C247        C  0.32415755  0.38637843  0.38975448     0.01300
C248        C  0.35220713  0.38695964  0.39426886     0.07300
C249        C  0.35335516  0.36743176  0.37642363    -0.05800
H250        H  0.31475341  0.39902494  0.39930742     0.08000
H251        H  0.37147294  0.36151563  0.37378100     0.09200
Cu252      Cu  0.26704629  0.35611870  0.35505791     0.44200
Cu253      Cu  0.31520805  0.32567677  0.33297326     0.42000
Cu254      Cu  0.24099967  0.30268774  0.30301851     0.43900
N255        N  0.22446199  0.34005248  0.33734699    -0.34500
N256        N  0.21502260  0.32079159  0.31828836    -0.28700
C257        C  0.18597445  0.31421066  0.31172485    -0.04800
C258        C  0.17674332  0.33001052  0.32751261     0.07400
C259        C  0.20167353  0.34618828  0.34349106     0.01200
H260        H  0.17238115  0.29853281  0.29696612     0.08800
H261        H  0.20299776  0.36086273  0.35871632     0.07900
N262        N  0.27069008  0.28645975  0.29268263    -0.35900
N263        N  0.29772474  0.29483408  0.30365045    -0.28100
C264        C  0.31144655  0.28056254  0.29246708    -0.03300
C265        C  0.29211992  0.26218562  0.27348581     0.05300
C266        C  0.26647419  0.26662913  0.27420775     0.03400
H267        H  0.33393030  0.28349860  0.29781962     0.08500
H268        H  0.24658308  0.25705393  0.26184670     0.07300
O269        O  0.29518109  0.11330407  0.18992620    -0.72700
O270        O  0.31107387  0.17767715  0.13841878    -0.73700
O271        O  0.31038789  0.11978306  0.13947611    -0.62300
O272        O  0.29557299  0.17073907  0.18898706    -0.70700
O273        O  0.34656441  0.19715328  0.19813532    -0.70300
O274        O  0.36137661  0.14536894  0.14863761    -0.61600
O275        O  0.36215023  0.20358872  0.14724329    -0.74100
O276        O  0.34610675  0.13939523  0.19927185    -0.72800
Cu277      Cu  0.30134414  0.14452993  0.16386592     1.04600
Cu278      Cu  0.35586734  0.17232647  0.17361604     1.04300
C279        C  0.31807931  0.11609799  0.20279593     0.93500
C280        C  0.33906017  0.20090741  0.13464558     0.92600
C281        C  0.33809445  0.12415356  0.13633197     0.84700
C282        C  0.31851826  0.19182101  0.20158973     0.91000
N283        N  0.62552863  0.65528357  0.36357499    -0.27100
N284        N  0.61354545  0.67209724  0.37196431    -0.34900
C285        C  0.59467003  0.65711460  0.39120060     0.01300
C286        C  0.59469925  0.62936830  0.39516523     0.07300
C287        C  0.61450500  0.62904797  0.37712502    -0.05800
H288        H  0.58202268  0.66598243  0.40151440     0.08000
H289        H  0.62013845  0.61093131  0.37350702     0.09200
Cu290      Cu  0.62310789  0.71423070  0.35662789     0.44200
Cu291      Cu  0.65621164  0.66845081  0.33411949     0.42000
Cu292      Cu  0.67783310  0.74211591  0.30484257     0.43900
N293        N  0.63737455  0.75599022  0.33841232    -0.34500
N294        N  0.65732303  0.76629968  0.31967730    -0.28700
C295        C  0.66192962  0.79440479  0.31249654    -0.04800
C296        C  0.64401426  0.80200440  0.32745705     0.07400
C297        C  0.62876000  0.77717122  0.34367027     0.01200
H298        H  0.67740853  0.80834747  0.29767988     0.08800
H299        H  0.61284396  0.77474203  0.35835559     0.07900
N300        N  0.69447558  0.71296657  0.29351303    -0.35900
N301        N  0.68644910  0.68598105  0.30435732    -0.28100
C302        C  0.70044798  0.67230523  0.29267938    -0.03300
C303        C  0.71811867  0.69148072  0.27329861     0.05300
C304        C  0.71384958  0.71718566  0.27455840     0.03400
H305        H  0.69797477  0.65013383  0.29819323     0.08500
H306        H  0.72352845  0.73720703  0.26230690     0.07300
N307        N  0.68452239  0.98986796  0.30503979    -0.27100
N308        N  0.68943618  0.96969276  0.29267322    -0.34900
C309        C  0.70843239  0.98456797  0.27342560     0.01300
C310        C  0.71592543  0.01576999  0.27349870     0.07300
C311        C  0.70035073  0.01818961  0.29396886    -0.05800
H312        H  0.71586711  0.97326223  0.26019927     0.08000
H313        H  0.70065204  0.03897901  0.30067289     0.09200
Cu314      Cu  0.67056702  0.92300730  0.30269287     0.44200
Cu315      Cu  0.65588875  0.97769306  0.33616212     0.42000
Cu316      Cu  0.61864506  0.89591713  0.35543526     0.43900
N317        N  0.65183475  0.87849964  0.31773641    -0.34500
N318        N  0.63278449  0.86854945  0.33700015    -0.28700
C319        C  0.62643973  0.83949439  0.34308391    -0.04800
C320        C  0.64240193  0.83087932  0.32688554     0.07400
C321        C  0.65819420  0.85608051  0.31103204     0.01200
H322        H  0.61212561  0.82615203  0.35858986     0.08800
H323        H  0.67386485  0.85839741  0.29619071     0.07900
N324        N  0.61078440  0.92882475  0.37231467    -0.35900
N325        N  0.62449003  0.95871409  0.36560175    -0.28100
C326        C  0.61429793  0.97354567  0.38044504    -0.03300
C327        C  0.59321525  0.95195793  0.39743060     0.05300
C328        C  0.59161456  0.92383982  0.39153413     0.03400
H329        H  0.62128315  0.99808592  0.37848819     0.08500
H330        H  0.57773649  0.90131071  0.40063000     0.07300
O331        O  0.84358926  0.64100902  0.19837548    -0.72700
O332        O  0.77937179  0.62576300  0.14707088    -0.73700
O333        O  0.83646153  0.62491257  0.14796542    -0.62300
O334        O  0.78639169  0.64176290  0.19757281    -0.70700
O335        O  0.81296441  0.69250044  0.18788268    -0.70300
O336        O  0.86388760  0.67572098  0.13851561    -0.61600
O337        O  0.80634075  0.67647097  0.13726586    -0.74100
O338        O  0.87027086  0.69192561  0.18912896    -0.72800
Cu339      Cu  0.81054779  0.63164088  0.17308650     1.04600
Cu340      Cu  0.83931184  0.68593788  0.16284912     1.04300
C341        C  0.86708815  0.66881783  0.20191506     0.93500
C342        C  0.78263427  0.64867274  0.13398263     0.92600
C343        C  0.85803964  0.64751811  0.13531028     0.84700
C344        C  0.79169599  0.66976287  0.20066921     0.91000
O345        O  0.86903428  0.16758687  0.18654238    -0.72700
O346        O  0.80356612  0.11556753  0.13627434    -0.73700
O347        O  0.86112282  0.17439340  0.13618115    -0.62300
O348        O  0.81157447  0.10851774  0.18716897    -0.70700
O349        O  0.78644313  0.13355596  0.19713510    -0.70300
O350        O  0.83436773  0.19813591  0.14506116    -0.61600
O351        O  0.77695537  0.13906335  0.14664664    -0.74100
O352        O  0.84367525  0.19274789  0.19545033    -0.72800
Cu353      Cu  0.83720553  0.14062897  0.16122590     1.04600
Cu354      Cu  0.80941731  0.16666962  0.17139441     1.04300
C355        C  0.86698583  0.18864113  0.19873934     0.93500
C356        C  0.77987807  0.11923212  0.13348164     0.92600
C357        C  0.85570855  0.19677200  0.13259679     0.84700
C358        C  0.79128590  0.11072430  0.20041976     0.91000
N359        N  0.35413215  0.31798859  0.02833582    -0.27100
N360        N  0.38256979  0.33742988  0.03723915    -0.34900
C361        C  0.38782003  0.32373345  0.05642247     0.01300
C362        C  0.36140527  0.29399542  0.05991582     0.07300
C363        C  0.34047590  0.29130810  0.04173145    -0.05800
H364        H  0.40911127  0.33514449  0.06730677     0.08000
H365        H  0.31710875  0.27135862  0.03832700     0.09200
Cu366      Cu  0.41275590  0.38211592  0.02344460     0.44200
Cu367      Cu  0.33567183  0.32916529  0.99827560     0.42000
Cu368      Cu  0.38656122  0.40723162  0.97117788     0.43900
N369        N  0.43871991  0.42659728  0.00811879    -0.34500
N370        N  0.42931467  0.43605586  0.98903640    -0.28700
C371        C  0.45155312  0.46611520  0.98381357    -0.04800
C372        C  0.47606390  0.47586767  0.00039552     0.07400
C373        C  0.46709266  0.45022532  0.01552626     0.01200
H374        H  0.45010133  0.47970397  0.96893129     0.08800
H375        H  0.48023544  0.44871354  0.03071702     0.07900
N376        N  0.34184246  0.37420766  0.95800563    -0.35900
N377        N  0.32341463  0.34598591  0.96776880    -0.28100
C378        C  0.29602198  0.33106266  0.95526585    -0.03300
C379        C  0.29709304  0.35078803  0.93673670     0.05300
C380        C  0.32656787  0.37795002  0.93914587     0.03400
H381        H  0.27639403  0.30791233  0.95990578     0.08500
H382        H  0.33621431  0.39907352  0.92807332     0.07300
N383        N  0.66199133  0.63274802  0.03028505    -0.27100
N384        N  0.64381140  0.60409782  0.03934337    -0.34900
C385        C  0.65889319  0.60004907  0.05815870     0.01300
C386        C  0.68803251  0.62748361  0.06122802     0.07300
C387        C  0.68907939  0.64763844  0.04308135    -0.05800
H388        H  0.64911134  0.57870106  0.06892389     0.08000
H389        H  0.70829785  0.67119661  0.03894668     0.09200
Cu390      Cu  0.59910205  0.57163862  0.02603385     0.44200
Cu391      Cu  0.64967672  0.65045296  0.00068656     0.42000
Cu392      Cu  0.57175448  0.59842452  0.97589485     0.43900
N393        N  0.55442450  0.54472406  0.01055105    -0.34500
N394        N  0.54439984  0.55487231  0.99232511    -0.28700
C395        C  0.51489781  0.53224523  0.98620067    -0.04800
C396        C  0.50589218  0.50652459  0.00126233     0.07400
C397        C  0.53148273  0.51525006  0.01652862     0.01200
H398        H  0.50128296  0.53424083  0.97160555     0.08800
H399        H  0.53349545  0.50110696  0.03066826     0.07900
N400        N  0.60340140  0.64224491  0.96145597    -0.35900
N401        N  0.63183689  0.66148374  0.97045424    -0.28100
C402        C  0.64607438  0.68794761  0.95685716    -0.03300
C403        C  0.62551129  0.68528811  0.93844225     0.05300
C404        C  0.59878524  0.65581928  0.94192607     0.03400
H405        H  0.66950652  0.70781148  0.96038014     0.08500
H406        H  0.57753000  0.64460800  0.93095851     0.07300
N407        N  0.99388792  0.68595065  0.69387609    -0.27100
N408        N  0.97406408  0.69319123  0.70411425    -0.34900
C409        C  0.98824036  0.71251082  0.72323358     0.01300
C410        C  0.01875349  0.71798547  0.72518870     0.07300
C411        C  0.02135786  0.70059791  0.70618394    -0.05800
H412        H  0.97667842  0.72122997  0.73501043     0.08000
H413        H  0.04168771  0.69868727  0.70152192     0.09200
Cu414      Cu  0.92900026  0.67719836  0.69117660     0.44200
Cu415      Cu  0.98202106  0.65614549  0.66382795     0.42000
Cu416      Cu  0.90412471  0.62825825  0.63689576     0.43900
N417        N  0.88689427  0.66301039  0.67337348    -0.34500
N418        N  0.87759867  0.64519470  0.65348982    -0.28700
C419        C  0.84964789  0.64116205  0.64626810    -0.04800
C420        C  0.84117171  0.65735113  0.66238935     0.07400
C421        C  0.86529958  0.67089491  0.67931388     0.01200
H422        H  0.83665462  0.62767856  0.63041168     0.08800
H423        H  0.86717139  0.68550640  0.69474735     0.07900
N424        N  0.93637470  0.61620564  0.62396036    -0.35900
N425        N  0.96447899  0.62628323  0.63375308    -0.28100
C426        C  0.97927666  0.61408087  0.62114572    -0.03300
C427        C  0.95968555  0.59545454  0.60236169     0.05300
C428        C  0.93263058  0.59735928  0.60483527     0.03400
H429        H  0.00239371  0.61808876  0.62580372     0.08500
H430        H  0.91172504  0.58605154  0.59347023     0.07300
N431        N  0.65661474  0.62668633  0.63699649    -0.27100
N432        N  0.67514316  0.61787156  0.62656497    -0.34900
C433        C  0.65940352  0.59777029  0.60820583     0.01300
C434        C  0.62939599  0.59365096  0.60702995     0.07300
C435        C  0.62856296  0.61247330  0.62555522    -0.05800
H436        H  0.66954531  0.58771387  0.59623528     0.08000
H437        H  0.60905424  0.61570244  0.63041232     0.09200
Cu438      Cu  0.72101497  0.63389595  0.63754063     0.44200
Cu439      Cu  0.67057108  0.65806711  0.66589258     0.42000
Cu440      Cu  0.74966575  0.68768567  0.68927882     0.43900
N441        N  0.76523614  0.65140632  0.65280019    -0.34500
N442        N  0.77569076  0.67080774  0.67177077    -0.28700
C443        C  0.80455766  0.67635378  0.67783516    -0.04800
C444        C  0.81251932  0.65958600  0.66191211     0.07400
C445        C  0.78711908  0.64413004  0.64624244     0.01200
H446        H  0.81838875  0.69100367  0.69296933     0.08800
H447        H  0.78433962  0.62817020  0.63156295     0.07900
N448        N  0.71835108  0.70027364  0.70341018    -0.35900
N449        N  0.68964329  0.68954141  0.69466967    -0.28100
C450        C  0.67532174  0.70187820  0.70768344    -0.03300
C451        C  0.69591726  0.72143471  0.72565531     0.05300
C452        C  0.72300419  0.71968840  0.72234535     0.03400
H453        H  0.65162764  0.69691393  0.70415924     0.08500
H454        H  0.74439155  0.73100071  0.73314852     0.07300
O455        O  0.62406300  0.77606748  0.85241620    -0.72700
O456        O  0.63973765  0.84172017  0.80192896    -0.73700
O457        O  0.64099850  0.78474070  0.80203739    -0.62300
O458        O  0.62217308  0.83285573  0.85217767    -0.70700
O459        O  0.67288009  0.85957275  0.86216090    -0.70300
O460        O  0.69176671  0.81165159  0.81184187    -0.61600
O461        O  0.69041397  0.86833307  0.81208594    -0.74100
O462        O  0.67490133  0.80298046  0.86207053    -0.72800
Cu463      Cu  0.62995619  0.80787503  0.82678461     1.04600
Cu464      Cu  0.68420048  0.83653960  0.83741599     1.04300
C465        C  0.64719879  0.77908262  0.86514648     0.93500
C466        C  0.66763323  0.86554222  0.79909869     0.92600
C467        C  0.66923155  0.79049633  0.79892046     0.84700
C468        C  0.64467734  0.85411291  0.86502758     0.91000
N469        N  0.29363208  0.98918279  0.69684266    -0.27100
N470        N  0.28591031  0.00835389  0.70749363    -0.34900
C471        C  0.26731301  0.99376351  0.72694999     0.01300
C472        C  0.26282381  0.96365498  0.72858014     0.07300
C473        C  0.28008237  0.96175809  0.70914276    -0.05800
H474        H  0.25824065  0.00470500  0.73904111     0.08000
H475        H  0.28235838  0.94183634  0.70400808     0.09200
Cu476      Cu  0.30070694  0.05311710  0.69460367     0.44200
Cu477      Cu  0.32213902  0.00158921  0.66613253     0.42000
Cu478      Cu  0.35373437  0.08068276  0.64181878     0.43900
N479        N  0.31815734  0.09677201  0.67848883    -0.34500
N480        N  0.33785559  0.10708291  0.65960276    -0.28700
C481        C  0.34463719  0.13637514  0.65387569    -0.04800
C482        C  0.32829028  0.14470812  0.66989818     0.07400
C483        C  0.31171626  0.11910584  0.68521718     0.01200
H484        H  0.36004398  0.15034442  0.63902802     0.08800
H485        H  0.29615935  0.11680267  0.70014549     0.07900
N486        N  0.36311068  0.04770686  0.62692534    -0.35900
N487        N  0.35141219  0.01898877  0.63588788    -0.28100
C488        C  0.36214764  0.00350695  0.62257000    -0.03300
C489        C  0.38149126  0.02327556  0.60410931     0.05300
C490        C  0.38160733  0.05122066  0.60753144     0.03400
H491        H  0.35690766  0.97989378  0.62674336     0.08500
H492        H  0.39422765  0.07261321  0.59681102     0.07300
N493        N  0.35200253  0.32389811  0.63710982    -0.27100
N494        N  0.36505769  0.30754187  0.62999745    -0.34900
C495        C  0.38545542  0.32280232  0.61163665     0.01300
C496        C  0.38566293  0.35051799  0.60701234     0.07300
C497        C  0.36396406  0.35024584  0.62354921    -0.05800
H498        H  0.39856178  0.31374807  0.60225937     0.08000
H499        H  0.35743172  0.36795262  0.62584853     0.09200
Cu500      Cu  0.35475094  0.26530178  0.64528830     0.44200
Cu501      Cu  0.31862282  0.30961404  0.66486766     0.42000
Cu502      Cu  0.29664607  0.23543513  0.69406532     0.43900
N503        N  0.33816732  0.22214907  0.66166258    -0.34500
N504        N  0.31678009  0.21103064  0.67939316    -0.28700
C505        C  0.31015931  0.18182950  0.68524819    -0.04800
C506        C  0.32825939  0.17436664  0.67040965     0.07400
C507        C  0.34575748  0.20041485  0.65569798     0.01200
H508        H  0.29311177  0.16704286  0.69898116     0.08800
H509        H  0.36240997  0.20327224  0.64149086     0.07900
N510        N  0.27941105  0.26409742  0.70480646    -0.35900
N511        N  0.28725755  0.29106930  0.69400824    -0.28100
C512        C  0.27302622  0.30445122  0.70578029    -0.03300
C513        C  0.25529779  0.28497290  0.72499899     0.05300
C514        C  0.25998611  0.25957077  0.72376811     0.03400
H515        H  0.27585562  0.32694844  0.70087391     0.08500
H516        H  0.25111956  0.23985238  0.73622610     0.07300
O517        O  0.17542652  0.30328954  0.86364485    -0.72700
O518        O  0.11067590  0.29084654  0.81308635    -0.73700
O519        O  0.16709837  0.28873603  0.81280590    -0.62300
O520        O  0.11834942  0.30529844  0.86364676    -0.70700
O521        O  0.14533696  0.35624733  0.85465716    -0.70300
O522        O  0.19457298  0.33971595  0.80394625    -0.61600
O523        O  0.13787720  0.34176600  0.80402602    -0.74100
O524        O  0.20231930  0.35430613  0.85488855    -0.72800
Cu525      Cu  0.14198653  0.29531170  0.83864461     1.04600
Cu526      Cu  0.17105445  0.34979694  0.82911993     1.04300
C527        C  0.19930922  0.33091335  0.86722358     0.93500
C528        C  0.11388132  0.31418870  0.80059129     0.92600
C529        C  0.18837186  0.31153391  0.80010775     0.84700
C530        C  0.12353895  0.33322238  0.86687372     0.91000
O531        O  0.20237073  0.83486968  0.85311932    -0.72700
O532        O  0.13570160  0.78452174  0.80308888    -0.73700
O533        O  0.19394248  0.84265991  0.80280900    -0.62300
O534        O  0.14403572  0.77665069  0.85348900    -0.70700
O535        O  0.11867460  0.80150117  0.86334403    -0.70300
O536        O  0.16876692  0.86762276  0.81288549    -0.61600
O537        O  0.11042533  0.80945762  0.81287622    -0.78600
O538        O  0.17712957  0.85974445  0.86322480    -0.72800
Cu539      Cu  0.16985404  0.80879349  0.82777943     1.04600
Cu540      Cu  0.14286826  0.83543963  0.83844820     1.04300
C541        C  0.20032841  0.85530373  0.86618268     0.93500
C542        C  0.11267222  0.78910890  0.79982246     0.92600
C543        C  0.18934566  0.86567888  0.79983316     0.84700
C544        C  0.12341174  0.77858645  0.86647962     0.91000
O545        O  0.45265013  0.46913694  0.53123991    -0.72700
O546        O  0.50205731  0.53567476  0.48142967    -0.73700
O547        O  0.44450795  0.47711162  0.48121582    -0.62300
O548        O  0.51024701  0.52738466  0.53154770    -0.70700
O549        O  0.53567290  0.50261940  0.52152644    -0.70300
O550        O  0.47056755  0.45311261  0.47070782    -0.61600
O551        O  0.52816443  0.51160322  0.47140747    -0.74100
O552        O  0.47804688  0.44440095  0.52103920    -0.72800
Cu553      Cu  0.47648005  0.50317359  0.50670320     1.04600
Cu554      Cu  0.50402305  0.47708245  0.49579699     1.04300
C555        C  0.45745200  0.44627315  0.53413599     0.93500
C556        C  0.52296326  0.53424707  0.46847620     0.92600
C557        C  0.44718929  0.45723842  0.46791097     0.84700
C558        C  0.53327933  0.52277993  0.53465969     0.91000
C559        C  0.39577715  0.39714015  0.58207425    -0.21100
C560        C  0.40445854  0.37502221  0.58839455    -0.09100
C561        C  0.43113435  0.37696333  0.57686909     0.29700
C562        C  0.44799063  0.39998038  0.55913454    -0.21100
C563        C  0.43915299  0.42193677  0.55281311    -0.09200
C564        C  0.41298141  0.42048909  0.56469256     0.29700
F565        F  0.40368384  0.44140179  0.55945928    -0.19700
H566        H  0.37541689  0.39640488  0.59041999     0.18100
H567        H  0.46836506  0.40087084  0.55059633     0.18100
F568        F  0.44175213  0.35741686  0.58304258    -0.19700
C569        C  0.24592805  0.32272935  0.74891783    -0.21100
C570        C  0.23756299  0.29144005  0.74389068    -0.09100
C571        C  0.21263949  0.26687212  0.75729627     0.29700
C572        C  0.19694979  0.27367292  0.77552177    -0.21100
C573        C  0.20555003  0.30500399  0.78075383    -0.09200
C574        C  0.23020153  0.32954075  0.76709852     0.29700
F575        F  0.23942638  0.36019755  0.77132883    -0.19700
H576        H  0.26511244  0.34216942  0.73907363     0.18100
H577        H  0.17783166  0.25423051  0.78545106     0.18100
F578        F  0.20275508  0.23619245  0.75249486    -0.19700
C579        C  0.24946892  0.91377926  0.75035056    -0.21100
C580        C  0.24382096  0.93869513  0.74687099    -0.09100
C581        C  0.21980799  0.93905600  0.76080092     0.29700
C582        C  0.20222385  0.91519361  0.77779973    -0.21100
C583        C  0.20800390  0.89039654  0.78135884    -0.09200
C584        C  0.23183773  0.88988256  0.76732157     0.29700
F585        F  0.23842309  0.86649796  0.77001178    -0.19700
H586        H  0.26786765  0.91283416  0.74013949     0.18100
H587        H  0.18392578  0.91617516  0.78817246     0.18100
F588        F  0.21256678  0.96189971  0.75776421    -0.19700
C589        C  0.58206844  0.58351337  0.58309664    -0.21100
C590        C  0.60426998  0.57478445  0.58906140    -0.09100
C591        C  0.60232872  0.54831936  0.57749886     0.29700
C592        C  0.57919362  0.53162040  0.55987856    -0.21100
C593        C  0.55731342  0.54066581  0.55359190    -0.09200
C594        C  0.55876857  0.56667373  0.56560261     0.29700
F595        F  0.53812002  0.57629062  0.56022169    -0.19700
H596        H  0.58305035  0.60383676  0.59162817     0.18100
H597        H  0.57829842  0.51136025  0.55127779     0.18100
F598        F  0.62215424  0.53795119  0.58358845    -0.19700
C599        C  0.70733958  0.78141424  0.77481297    -0.21100
C600        C  0.67592339  0.77267880  0.78024050    -0.09100
C601        C  0.65129560  0.74701877  0.76753723     0.29700
C602        C  0.65809450  0.73059262  0.75001266    -0.21100
C603        C  0.68950301  0.73931315  0.74453035    -0.09200
C604        C  0.71415394  0.76512540  0.75711698     0.29700
F605        F  0.74492885  0.77541475  0.75197760    -0.19700
H606        H  0.72681775  0.80119500  0.78407363     0.18100
H607        H  0.63851957  0.71075925  0.74093232     0.18100
F608        F  0.62051831  0.73747429  0.77206697    -0.19700
C609        C  0.06785284  0.73144709  0.74827487    -0.21100
C610        C  0.04290052  0.73688054  0.74406315    -0.09100
C611        C  0.04138973  0.76007224  0.75820448     0.29700
C612        C  0.06395758  0.77673562  0.77633159    -0.21100
C613        C  0.08870541  0.77099756  0.78067719    -0.09200
C614        C  0.09048513  0.74821499  0.76624673     0.29700
F615        F  0.11400865  0.74188151  0.76943417    -0.19700
H616        H  0.06977088  0.71377478  0.73788972     0.18100
H617        H  0.06212882  0.79438466  0.78686885     0.18100
F618        F  0.01870818  0.76739767  0.75427771    -0.19700
C619        C  0.66187758  0.73166561  0.91239265    -0.21100
C620        C  0.63089184  0.70894877  0.91940501    -0.09100
C621        C  0.60539400  0.70940608  0.90822624     0.29700
C622        C  0.61093282  0.73203146  0.89049261    -0.21100
C623        C  0.64189210  0.75487074  0.88359894    -0.09200
C624        C  0.66742781  0.75436443  0.89468385     0.29700
F625        F  0.69780130  0.77550881  0.88828808    -0.19700
H626        H  0.68197658  0.73173493  0.92044650     0.18100
H627        H  0.59082816  0.73194944  0.88243515     0.18100
F628        F  0.57504809  0.68882000  0.91494807    -0.19700
C629        C  0.26990443  0.37087427  0.91018553    -0.21100
C630        C  0.27172768  0.34518838  0.91912445    -0.09100
C631        C  0.24919032  0.31459557  0.91109239     0.29700
C632        C  0.22551358  0.31006399  0.89452495    -0.21100
C633        C  0.22383202  0.33584959  0.88548450    -0.09200
C634        C  0.24629194  0.36637670  0.89368363     0.29700
F635        F  0.24528328  0.39200123  0.88607205    -0.19700
H636        H  0.28660106  0.39465216  0.91625398     0.18100
H637        H  0.20878539  0.28630749  0.88841982     0.18100
F638        F  0.25061029  0.28912946  0.91851066    -0.19700
C639        C  0.75905522  0.66883289  0.10380772    -0.21100
C640        C  0.75873754  0.64310992  0.11508605    -0.09100
C641        C  0.73514895  0.61233111  0.10833796     0.29700
C642        C  0.71254166  0.60761997  0.09080485    -0.21100
C643        C  0.71267245  0.63331346  0.07961983    -0.09200
C644        C  0.73627463  0.66412149  0.08640481     0.29700
F645        F  0.73694426  0.68984456  0.07696635    -0.19700
H646        H  0.77669232  0.69278608  0.10876012     0.18100
H647        H  0.69502705  0.58364287  0.08587832     0.18100
F648        F  0.73391202  0.58663649  0.11847764    -0.19700
C649        C  0.75786578  0.03756598  0.24079378    -0.21100
C650        C  0.73590358  0.04066513  0.25534743    -0.09100
C651        C  0.73296650  0.06733375  0.25192365     0.29700
C652        C  0.75133506  0.09000229  0.23432761    -0.21100
C653        C  0.77299725  0.08674808  0.21957297    -0.09200
C654        C  0.77626994  0.06028414  0.22314986     0.29700
F655        F  0.79699397  0.05606280  0.20953943    -0.19700
H656        H  0.76098683  0.01755708  0.24307871     0.18100
H657        H  0.74818101  0.11000472  0.23206249     0.18100
F658        F  0.71155771  0.07118232  0.26483019    -0.19700
C659        C  0.55073946  0.60425098  0.42585878    -0.21100
C660        C  0.57668469  0.60511942  0.41412634    -0.09100
C661        C  0.58489514  0.58265001  0.42073733     0.29700
C662        C  0.56725708  0.55977482  0.43833895    -0.21100
C663        C  0.54128495  0.55885074  0.44996002    -0.09200
C664        C  0.53322703  0.58148230  0.44360118     0.29700
F665        F  0.50818635  0.58147763  0.45417897    -0.19700
H666        H  0.54355233  0.62092525  0.42112698     0.18100
H667        H  0.57421939  0.54288446  0.44302056     0.18100
F668        F  0.61036384  0.58297469  0.41079421    -0.19700
C669        C  0.76162189  0.71122886  0.24206907    -0.21100
C670        C  0.73700423  0.68572628  0.25489934    -0.09100
C671        C  0.73053420  0.65500041  0.24960886     0.29700
C672        C  0.74843363  0.65016037  0.23206302    -0.21100
C673        C  0.77306728  0.67565290  0.21922352    -0.09200
C674        C  0.77945562  0.70637174  0.22443394     0.29700
F675        F  0.80298491  0.73185827  0.21263720    -0.19700
H676        H  0.76735973  0.73514202  0.24579301     0.18100
H677        H  0.74271031  0.62622598  0.22839003     0.18100
F678        F  0.70630077  0.62936211  0.26069089    -0.19700
C679        C  0.32510898  0.24750372  0.08597278    -0.21100
C680        C  0.35612203  0.27044216  0.07918270    -0.09100
C681        C  0.38153089  0.27040324  0.09098541     0.29700
C682        C  0.37580011  0.24782403  0.10893054    -0.21100
C683        C  0.34474083  0.22481523  0.11562782    -0.09200
C684        C  0.31938810  0.22506972  0.10398786     0.29700
F685        F  0.28894009  0.20397658  0.11019288    -0.19700
H686        H  0.30504922  0.24712333  0.07759394     0.18100
H687        H  0.39582312  0.24825465  0.11746599     0.18100
F688        F  0.41197939  0.29154465  0.08487627    -0.19700
C689        C  0.40650161  0.40851664  0.41152023    -0.21100
C690        C  0.37622855  0.40477454  0.41347989    -0.09100
C691        C  0.36960193  0.41819990  0.43383024     0.29700
C692        C  0.39285859  0.43525991  0.45130829    -0.21100
C693        C  0.42299521  0.43895162  0.44922928    -0.09200
C694        C  0.42958991  0.42522536  0.42919594     0.29700
F695        F  0.45857216  0.42857063  0.42626812    -0.19700
H696        H  0.41270293  0.39889299  0.39611584     0.18100
H697        H  0.38707062  0.44527183  0.46673957     0.18100
F698        F  0.34060616  0.41447857  0.43739479    -0.19700
C699        C  0.32988866  0.25090671  0.25130516    -0.21100
C700        C  0.29860986  0.24350828  0.25554867    -0.09100
C701        C  0.27403426  0.21851415  0.24231341     0.29700
C702        C  0.28084376  0.20205645  0.22486169    -0.21100
C703        C  0.31215841  0.20976502  0.22031375    -0.09200
C704        C  0.33668957  0.23426179  0.23396839     0.29700
F705        F  0.36729721  0.24241519  0.23054984    -0.19700
H706        H  0.34938114  0.27003989  0.26113314     0.18100
H707        H  0.26135359  0.18299918  0.21498031     0.18100
F708        F  0.24329208  0.20926720  0.24653789    -0.19700
C709        C  0.91364192  0.19935594  0.22369373    -0.21100
C710        C  0.89181183  0.20816152  0.21674263    -0.09100
C711        C  0.89417950  0.23546323  0.22714998     0.29700
C712        C  0.91811891  0.25351510  0.24394334    -0.21100
C713        C  0.94002338  0.24471451  0.25077742    -0.09200
C714        C  0.93733273  0.21720235  0.24061677     0.29700
F715        F  0.95679840  0.20675081  0.24756059    -0.19700
H716        H  0.91216086  0.17825869  0.21627351     0.18100
H717        H  0.91969107  0.27464625  0.25136639     0.18100
F718        F  0.87375700  0.24506945  0.22093304    -0.19700
C719        C  0.09261596  0.70697293  0.90801373    -0.21100
C720        C  0.06719929  0.70696898  0.91986509    -0.09100
C721        C  0.06075353  0.73094369  0.91422777     0.29700
C722        C  0.07936071  0.75423223  0.89711609    -0.21100
C723        C  0.10463621  0.75411445  0.88509778    -0.09200
C724        C  0.11119463  0.73022741  0.89085265     0.29700
F725        F  0.13560615  0.72926605  0.88006380    -0.19700
H726        H  0.09841190  0.68909574  0.91217075     0.18100
H727        H  0.07357206  0.77214114  0.89300577     0.18100
F728        F  0.03584247  0.73143560  0.92449764    -0.19700
C729        C  0.88265383  0.60404249  0.09109261    -0.21100
C730        C  0.91046257  0.62890680  0.08077910    -0.09100
C731        C  0.92118221  0.65993931  0.08883502     0.29700
C732        C  0.90412304  0.66578330  0.10656116    -0.21100
C733        C  0.87613406  0.64091707  0.11674633    -0.09200
C734        C  0.86560726  0.60985746  0.10881406     0.29700
F735        F  0.83846211  0.58503630  0.11774015    -0.19700
H736        H  0.87370205  0.57996617  0.08512665     0.18100
H737        H  0.91303481  0.68987001  0.11246941     0.18100
F738        F  0.94862063  0.68462494  0.08019089    -0.19700
C739        C  0.06030334  0.31965541  0.91370373    -0.21100
C740        C  0.06681629  0.35051854  0.91806441    -0.09100
C741        C  0.09190734  0.37557669  0.90505319     0.29700
C742        C  0.11015690  0.36972453  0.88855284    -0.21100
C743        C  0.10392888  0.33890508  0.88453467    -0.09200
C744        C  0.07847417  0.31380535  0.89716117     0.29700
F745        F  0.07084479  0.28347734  0.89351799    -0.19700
H746        H  0.04088122  0.29974425  0.92298842     0.18100
H747        H  0.12940682  0.38953033  0.87900922     0.18100
F748        F  0.09963094  0.40591296  0.90859518    -0.19700
C749        C  0.91975455  0.24846084  0.08672508    -0.21100
C750        C  0.91041881  0.26991684  0.07996720    -0.09100
C751        C  0.88265780  0.26673867  0.09026268     0.29700
C752        C  0.86495466  0.24280287  0.10719339    -0.21100
C753        C  0.87441203  0.22147012  0.11415002    -0.09200
C754        C  0.90204762  0.22448777  0.10362731     0.29700
F755        F  0.91240332  0.20471897  0.10991775    -0.19700
H756        H  0.94110403  0.25048661  0.07916778     0.18100
H757        H  0.84362473  0.24086957  0.11475009     0.18100
F758        F  0.87195777  0.28603610  0.08344518    -0.19700
C759        C  0.27246313  0.88625249  0.90735149    -0.21100
C760        C  0.26974331  0.90825976  0.92200543    -0.09100
C761        C  0.24434137  0.91311791  0.91767947     0.29700
C762        C  0.22215427  0.89600328  0.89945594    -0.21100
C763        C  0.22468487  0.87374425  0.88500604    -0.09200
C764        C  0.25036528  0.86924543  0.88905181     0.29700
F765        F  0.25423408  0.84834352  0.87547726    -0.19700
H766        H  0.29156919  0.88180323  0.91017134     0.18100
H767        H  0.20292179  0.90029023  0.89667322     0.18100
F768        F  0.24113653  0.93490757  0.93051394    -0.19700
C769        C  0.37594028  0.08693734  0.09882096    -0.21100
C770        C  0.35105021  0.06648356  0.08318423    -0.09100
C771        C  0.32179946  0.06515189  0.08563837     0.29700
C772        C  0.31794503  0.08382758  0.10296906    -0.21100
C773        C  0.34292908  0.10441991  0.11830170    -0.09200
C774        C  0.37202351  0.10563170  0.11614494     0.29700
F775        F  0.39675439  0.12465446  0.13085182    -0.19700
H776        H  0.39869758  0.08871578  0.09783096     0.18100
H777        H  0.29521493  0.08223253  0.10421879     0.18100
F778        F  0.29661982  0.04607130  0.07143942    -0.19700
C779        C  0.66396174  0.89806619  0.89543147    -0.21100
C780        C  0.63844231  0.87294880  0.88311585    -0.09100
C781        C  0.60760637  0.86682199  0.88804046     0.29700
C782        C  0.60276937  0.88551615  0.90486535    -0.21100
C783        C  0.62838310  0.91046525  0.91726696    -0.09200
C784        C  0.65911755  0.91661498  0.91223135     0.29700
F785        F  0.68478237  0.94120604  0.92289080    -0.19700
H786        H  0.68798375  0.90369958  0.89190533     0.18100
H787        H  0.57883691  0.88012023  0.90845627     0.18100
F788        F  0.58205183  0.84272727  0.87680913    -0.19700
C789        C  0.74003483  0.07380449  0.07553818    -0.21100
C790        C  0.70862056  0.06630810  0.07932513    -0.09100
C791        C  0.70100770  0.07612724  0.10127791     0.29700
C792        C  0.72432792  0.09319800  0.11872970    -0.21100
C793        C  0.75560637  0.10061295  0.11491285    -0.09200
C794        C  0.76333584  0.09076948  0.09310963     0.29700
F795        F  0.79359016  0.09851718  0.08835514    -0.19700
H796        H  0.74680355  0.06703229  0.05872862     0.18100
H797        H  0.71778670  0.10034750  0.13547709     0.18100
F798        F  0.67094531  0.06865277  0.10635197    -0.19700
C799        C  0.00161396  0.56673037  0.56015148    -0.21100
C800        C  0.97596424  0.54047366  0.54892161    -0.09100
C801        C  0.94501566  0.53245917  0.55554350     0.29700
C802        C  0.94006907  0.55049751  0.57281035    -0.21100
C803        C  0.96569126  0.57679116  0.58401128    -0.09200
C804        C  0.99665842  0.58476060  0.57744557     0.29700
F805        F  0.02228178  0.61046076  0.58708217    -0.19700
H806        H  0.02571387  0.57363154  0.55535303     0.18100
H807        H  0.91595843  0.54347178  0.57765993     0.18100
F808        F  0.91940046  0.50696022  0.54564165    -0.19700
C809        C  0.98315179  0.41455444  0.43176394    -0.21100
C810        C  0.00816864  0.43674829  0.44634928    -0.09100
C811        C  0.03832166  0.44044571  0.44327705     0.29700
C812        C  0.04318749  0.42258060  0.42582933    -0.21100
C813        C  0.01825691  0.40058198  0.41105208    -0.09200
C814        C  0.98798397  0.39659802  0.41436978     0.29700
F815        F  0.96271055  0.37497177  0.40132263    -0.19700
H816        H  0.95962143  0.41094970  0.43381452     0.18100
H817        H  0.06679274  0.42643854  0.42375226     0.18100
F818        F  0.06326291  0.46130204  0.45705110    -0.19700
C819        C  0.40834223  0.97940636  0.56269660    -0.21100
C820        C  0.43575448  0.00429655  0.55198863    -0.09100
C821        C  0.44475697  0.03558383  0.55810666     0.29700
C822        C  0.42677950  0.04153383  0.57478944    -0.21100
C823        C  0.39953891  0.01657007  0.58570998    -0.09200
C824        C  0.39028231  0.98535033  0.57921756     0.29700
F825        F  0.36337690  0.96039621  0.58825343    -0.19700
H826        H  0.40057683  0.95513599  0.55809617     0.18100
H827        H  0.43465395  0.06578886  0.57949519     0.18100
F828        F  0.47121996  0.06050317  0.54841799    -0.19700
C829        C  0.56816933  0.99196177  0.44458624    -0.21100
C830        C  0.54000317  0.96639293  0.45387323    -0.09100
C831        C  0.53005505  0.93587444  0.44506766     0.29700
C832        C  0.54754560  0.93142456  0.42685426    -0.21100
C833        C  0.57542299  0.95714256  0.41718678    -0.09200
C834        C  0.58581935  0.98749209  0.42662399     0.29700
F835        F  0.61336264  0.01292099  0.41901437    -0.19700
H836        H  0.57673367  0.01566583  0.45131175     0.18100
H837        H  0.53878964  0.90775732  0.42001378     0.18100
F838        F  0.50302041  0.91041315  0.45347027    -0.19700
C839        C  0.57478727  0.98515634  0.58942853    -0.21100
C840        C  0.59989071  0.01631689  0.59296617    -0.09100
C841        C  0.60051246  0.04057617  0.57895157     0.29700
C842        C  0.57731474  0.03355365  0.56141521    -0.21100
C843        C  0.55271889  0.00236589  0.55748315    -0.09200
C844        C  0.55140193  0.97817986  0.57198764     0.29700
F845        F  0.52787961  0.94768577  0.56917642    -0.19700
H846        H  0.57338184  0.96586053  0.59979834     0.18100
H847        H  0.57873802  0.05276521  0.55084533     0.18100
F848        F  0.62312332  0.07127007  0.58219450    -0.19700
C849        C  0.65539783  0.91444393  0.75180734    -0.21100
C850        C  0.68669031  0.93800507  0.74633411    -0.09100
C851        C  0.71162579  0.93746618  0.75837036     0.29700
C852        C  0.70516769  0.91382940  0.77541896    -0.21100
C853        C  0.67384480  0.89021084  0.78083025    -0.09200
C854        C  0.64894271  0.89080269  0.76881504     0.29700
F855        F  0.61828362  0.86887181  0.77366007    -0.19700
H856        H  0.63566224  0.91442900  0.74313642     0.18100
H857        H  0.72487075  0.91392416  0.78426306     0.18100
F858        F  0.74228492  0.95910601  0.75328073    -0.19700
C859        C  0.94096419  0.37385746  0.57200929    -0.21100
C860        C  0.96662347  0.37576880  0.58478207    -0.09100
C861        C  0.99733440  0.40098732  0.57950170     0.29700
C862        C  0.00197683  0.42374116  0.56214040    -0.21100
C863        C  0.97629611  0.42185556  0.54946258    -0.09200
C864        C  0.94562611  0.39649142  0.55454860     0.29700
F865        F  0.91996207  0.39346659  0.54282677    -0.19700
H866        H  0.91703105  0.35503704  0.57567128     0.18100
H867        H  0.02587463  0.44275243  0.55848276     0.18100
F868        F  0.02313670  0.40348713  0.59052810    -0.19700
C869        C  0.04184536  0.27450841  0.75909666    -0.21100
C870        C  0.04250198  0.30051996  0.74807989    -0.09100
C871        C  0.06698921  0.33110699  0.75435213     0.29700
C872        C  0.09023290  0.33534954  0.77117864    -0.21100
C873        C  0.08952525  0.30929238  0.78225952    -0.09200
C874        C  0.06499929  0.27872041  0.77593796     0.29700
F875        F  0.06334528  0.25272369  0.78585166    -0.19700
H876        H  0.02353568  0.25071650  0.75448611     0.18100
H877        H  0.10855131  0.35915273  0.77580508     0.18100
F878        F  0.06797230  0.35702348  0.74496227    -0.19700
C879        C  0.42232603  0.99293874  0.43860555    -0.21100
C880        C  0.42261469  0.96729838  0.44938751    -0.09100
C881        C  0.40065535  0.93652305  0.44138966     0.29700
C882        C  0.37924262  0.93179031  0.42278234    -0.21100
C883        C  0.37916686  0.95751894  0.41186580    -0.09200
C884        C  0.40078566  0.98820748  0.42020295     0.29700
F885        F  0.40059261  0.01373022  0.41129215    -0.19700
H886        H  0.43856783  0.01682265  0.44465449     0.18100
H887        H  0.36299908  0.90796793  0.41673967     0.18100
F888        F  0.40013960  0.91099586  0.45116193    -0.19700
C889        C  0.27696828  0.04324866  0.24324363    -0.21100
C890        C  0.30191375  0.04668483  0.25799608    -0.09100
C891        C  0.33223410  0.07358973  0.25444001     0.29700
C892        C  0.33713530  0.09598158  0.23663204    -0.21100
C893        C  0.31220666  0.09225221  0.22182067    -0.09200
C894        C  0.28194997  0.06550999  0.22535034     0.29700
F895        F  0.25703727  0.06050241  0.21141513    -0.19700
H896        H  0.25327456  0.02320884  0.24533430     0.18100
H897        H  0.36072370  0.11627600  0.23436122     0.18100
F898        F  0.35753581  0.07842655  0.26767720    -0.19700
C899        C  0.98915615  0.57735885  0.41398480    -0.21100
C900        C  0.02026103  0.60169488  0.40895272    -0.09100
C901        C  0.04531670  0.60234071  0.42180933     0.29700
C902        C  0.03919845  0.57940891  0.43943349    -0.21100
C903        C  0.00808131  0.55523289  0.44464918    -0.09200
C904        C  0.98302354  0.55439106  0.43161517     0.29700
F905        F  0.95250553  0.53165914  0.43599687    -0.19700
H906        H  0.96936410  0.57629795  0.40454793     0.18100
H907        H  0.05901135  0.58055698  0.44892649     0.18100
F908        F  0.07587691  0.62453646  0.41701676    -0.19700
C909        C  0.91206464  0.70504998  0.22903500    -0.21100
C910        C  0.89087409  0.67427628  0.22075679    -0.09100
C911        C  0.89305220  0.64903499  0.23039632     0.29700
C912        C  0.91622462  0.65464631  0.24759476    -0.21100
C913        C  0.93775130  0.68542266  0.25557977    -0.09200
C914        C  0.93521982  0.71065231  0.24633000     0.29700
F915        F  0.95457401  0.74064919  0.25426881    -0.19700
H916        H  0.91065651  0.72486030  0.22218795     0.18100
H917        H  0.91773999  0.63480511  0.25419430     0.18100
F918        F  0.87347148  0.61895324  0.22271540    -0.19700
loop_ 
_geom_bond_atom_site_label_1 
_geom_bond_atom_site_label_2 
_geom_bond_distance 
_geom_bond_site_symmetry_2 
_ccdc_geom_bond_type 
N1            N2   1.321   1_655  A
N1            C5   1.343       .  A
N1           Cu9   2.072   1_655  S
N2            C3   1.343   1_455  A
N2           Cu8   2.062       .  S
C3            C4   1.385       .  A
C3            H6   1.081   1_655  S
C4            C5   1.386       .  A
C4          C913   1.480       .  S
C5            H7   1.081       .  S
Cu8          N11   2.061       .  S
Cu9          N19   2.072       .  S
Cu10         N12   2.069       .  S
Cu10         N18   2.069       .  S
N11          N12   1.321       .  A
N11          C15   1.344       .  A
N12          C13   1.344       .  A
C13          C14   1.382       .  A
C13          H16   1.081       .  S
C14          C15   1.381       .  A
C14          C38   1.466       .  S
C15          H17   1.081       .  S
N18          N19   1.321       .  A
N18          C22   1.343       .  A
N19          C20   1.345       .  A
C20          C21   1.388       .  A
C20          H23   1.081   1_455  S
C21          C22   1.387       .  A
C21         C900   1.484       .  S
C22          H24   1.082       .  S
N25          N26   1.320       .  A
N25          C29   1.344   1_565  A
N25         Cu33   2.070       .  S
N26          C27   1.342       .  A
N26         Cu32   2.070       .  S
C27          C28   1.391   1_565  A
C27          H30   1.082       .  S
C28          C29   1.391       .  A
C28         C890   1.493       .  S
C29          H31   1.079       .  S
Cu32         N35   2.070       .  S
Cu33         N43   2.070       .  S
Cu34         N36   2.063       .  S
Cu34         N42   2.063       .  S
N35          N36   1.322       .  A
N35          C39   1.345       .  A
N36          C37   1.343       .  A
C37          C38   1.380       .  A
C37          H40   1.081       .  S
C38          C39   1.383       .  A
C39          H41   1.081       .  S
N42          N43   1.320       .  A
N42          C46   1.344       .  A
N43          C44   1.342       .  A
C44          C45   1.387       .  A
C44          H47   1.083       .  S
C45          C46   1.386       .  A
C45         C883   1.482       .  S
C46          H48   1.080       .  S
N49          N50   1.321       .  A
N49          C53   1.345   1_655  A
N49         Cu57   2.074       .  S
N50          C51   1.345       .  A
N50         Cu56   2.077       .  S
C51          C52   1.388   1_655  A
C51          H54   1.081       .  S
C52          C53   1.387       .  A
C52         C870   1.486       .  S
C53          H55   1.082       .  S
Cu56         N59   2.077       .  S
Cu57         N67   2.073       .  S
Cu58         N60   2.065       .  S
Cu58         N66   2.065       .  S
N59          N60   1.322       .  A
N59          C63   1.344       .  A
N60          C61   1.345       .  A
C61          C62   1.381       .  A
C61          H64   1.081       .  S
C62          C63   1.383       .  A
C62          C86   1.468       .  S
C63          H65   1.081       .  S
N66          N67   1.320       .  A
N66          C70   1.343       .  A
N67          C68   1.344       .  A
C68          C69   1.389       .  A
C68          H71   1.081   1_655  S
C69          C70   1.387       .  A
C69         C860   1.486       .  S
C70          H72   1.081       .  S
N73          N74   1.320   1_565  A
N73          C77   1.342       .  A
N73         Cu81   2.066       .  S
N74          C75   1.344   1_545  A
N74         Cu80   2.067       .  S
C75          C76   1.387       .  A
C75          H78   1.081   1_565  S
C76          C77   1.386       .  A
C76         C850   1.482       .  S
C77          H79   1.081       .  S
Cu80         N83   2.067       .  S
Cu81         N91   2.066   1_565  S
Cu82         N84   2.070       .  S
Cu82         N90   2.069       .  S
N83          N84   1.322       .  A
N83          C87   1.343       .  A
N84          C85   1.345       .  A
C85          C86   1.383       .  A
C85          H88   1.081       .  S
C86          C87   1.381       .  A
C87          H89   1.081       .  S
N90          N91   1.320       .  A
N90          C94   1.342       .  A
N91          C92   1.343       .  A
C92          C93   1.389       .  A
C92          H95   1.081   1_545  S
C93          C94   1.389       .  A
C93         C840   1.488       .  S
C94          H96   1.080       .  S
O97        Cu105   2.005       .  S
O97         C107   1.277       .  A
O98        Cu105   2.008       .  S
O98         C108   1.278       .  A
O99        Cu105   2.013       .  S
O99         C109   1.280       .  A
O100       Cu105   2.017       .  S
O100        C110   1.279       .  A
O101       Cu106   1.997       .  S
O101        C110   1.277   1_545  A
O102       Cu106   1.995       .  S
O102        C109   1.275   1_545  A
O103       Cu106   1.998       .  S
O103        C108   1.278   1_545  A
O104       Cu106   2.002       .  S
O104        C107   1.278   1_545  A
Cu105      Cu106   2.370   1_565  S
C107        C880   1.479       .  S
C108        C843   1.481   1_565  S
C109        C820   1.480   1_565  S
C110        C830   1.482       .  S
O111       Cu119   2.008       .  S
O111        C121   1.278   1_455  A
O112       Cu119   2.003       .  S
O112        C122   1.277       .  A
O113       Cu119   2.008       .  S
O113        C123   1.279       .  A
O114       Cu119   2.007       .  S
O114        C124   1.278   1_455  A
O115       Cu120   2.004       .  S
O115        C124   1.277       .  A
O116       Cu120   2.006       .  S
O116        C123   1.278   1_655  A
O117       Cu120   2.006       .  S
O117        C122   1.278   1_655  A
O118       Cu120   2.006       .  S
O118        C121   1.278       .  A
Cu119      Cu120   2.368   1_455  S
C121        C800   1.484       .  S
C122        C810   1.482       .  S
C123        C903   1.484       .  S
C124        C863   1.483       .  S
N125        N126   1.320       .  A
N125        C129   1.346       .  A
N125       Cu133   2.077   1_544  S
N126        C127   1.344       .  A
N126       Cu132   2.073       .  S
C127        C128   1.388       .  A
C127        H130   1.081       .  S
C128        C129   1.389       .  A
C128        C790   1.487       .  S
C129        H131   1.082       .  S
Cu132       N135   2.073       .  S
Cu133       N143   2.078       .  S
Cu134       N136   2.080       .  S
Cu134       N142   2.080       .  S
N135        N136   1.322   1_544  A
N135        C139   1.345       .  A
N136        C137   1.346       .  A
C137        C138   1.384       .  A
C137        H140   1.080       .  S
C138        C139   1.383   1_566  A
C138        C162   1.473       .  S
C139        H141   1.080       .  S
N142        N143   1.322       .  A
N142        C146   1.347       .  A
N143        C144   1.344       .  A
C144        C145   1.387       .  A
C144        H147   1.082       .  S
C145        C146   1.388       .  A
C145        C783   1.486       .  S
C146        H148   1.082       .  S
N149        N150   1.320       .  A
N149        C153   1.345       .  A
N149       Cu157   2.074   1_556  S
N150        C151   1.344       .  A
N150       Cu156   2.076       .  S
C151        C152   1.388       .  A
C151        H154   1.080       .  S
C152        C153   1.390       .  A
C152        C760   1.489       .  S
C153        H155   1.081       .  S
Cu156       N159   2.076       .  S
Cu157       N167   2.074   1_565  S
Cu158       N160   2.074       .  S
Cu158       N166   2.073       .  S
N159        N160   1.322   1_566  A
N159        C163   1.345       .  A
N160        C161   1.346       .  A
C161        C162   1.384   1_544  A
C161        H164   1.080       .  S
C162        C163   1.383       .  A
C163        H165   1.080       .  S
N166        N167   1.320       .  A
N166        C170   1.344       .  A
N167        C168   1.343       .  A
C168        C169   1.392       .  A
C168        H171   1.077       .  S
C169        C170   1.391       .  A
C169        C770   1.495       .  S
C170        H172   1.080       .  S
N173        N174   1.322       .  A
N173        C177   1.344       .  A
N173       Cu181   2.070   1_554  S
N174        C175   1.344       .  A
N174       Cu180   2.072       .  S
C175        C176   1.386       .  A
C175        H178   1.082       .  S
C176        C177   1.384       .  A
C176        C750   1.479       .  S
C177        H179   1.081       .  S
Cu180       N183   2.072       .  S
Cu181       N191   2.071   1_655  S
Cu182       N184   2.071   1_455  S
Cu182       N190   2.070       .  S
N183        N184   1.322   1_554  A
N183        C187   1.345       .  A
N184        C185   1.345   1_655  A
C185        C186   1.383   1_456  A
C185        H188   1.081       .  S
C186        C187   1.383       .  A
C186        C210   1.470       .  S
C187        H189   1.081       .  S
N190        N191   1.320       .  A
N190        C194   1.344       .  A
N191        C192   1.344       .  A
C192        C193   1.389       .  A
C192        H195   1.080       .  S
C193        C194   1.388       .  A
C193        C740   1.488       .  S
C194        H196   1.081       .  S
N197        N198   1.321       .  A
N197        C201   1.343       .  A
N197       Cu205   2.066   1_456  S
N198        C199   1.344       .  A
N198       Cu204   2.069       .  S
C199        C200   1.387       .  A
C199        H202   1.082       .  S
C200        C201   1.386       .  A
C200        C720   1.482       .  S
C201        H203   1.081       .  S
Cu204       N207   2.070   1_455  S
Cu205       N215   2.066       .  S
Cu206       N208   2.082       .  S
Cu206       N214   2.082       .  S
N207        N208   1.323   1_556  A
N207        C211   1.345   1_655  A
N208        C209   1.346       .  A
C209        C210   1.383       .  A
C209        H212   1.080       .  S
C210        C211   1.382   1_654  A
C211        H213   1.081       .  S
N214        N215   1.321       .  A
N214        C218   1.347       .  A
N215        C216   1.344       .  A
C216        C217   1.385       .  A
C216        H219   1.082       .  S
C217        C218   1.389       .  A
C217        C730   1.485       .  S
C218        H220   1.082       .  S
N221        N222   1.320   1_655  A
N221        C225   1.343       .  A
N221       Cu229   2.060   1_655  S
N222        C223   1.342   1_455  A
N222       Cu228   2.066       .  S
C223        C224   1.387       .  A
C223        H226   1.081   1_655  S
C224        C225   1.385       .  A
C224        C713   1.480       .  S
C225        H227   1.082       .  S
Cu228       N231   2.067       .  S
Cu229       N239   2.060       .  S
Cu230       N232   2.069       .  S
Cu230       N238   2.069       .  S
N231        N232   1.322       .  A
N231        C235   1.344       .  A
N232        C233   1.344       .  A
C233        C234   1.382       .  A
C233        H236   1.080       .  S
C234        C235   1.382       .  A
C234        C258   1.467       .  S
C235        H237   1.080       .  S
N238        N239   1.320       .  A
N238        C242   1.343       .  A
N239        C240   1.341       .  A
C240        C241   1.387       .  A
C240        H243   1.081   1_455  S
C241        C242   1.389       .  A
C241        C813   1.485       .  S
C242        H244   1.081       .  S
N245        N246   1.319       .  A
N245        C249   1.343       .  A
N245       Cu253   2.067       .  S
N246        C247   1.343       .  A
N246       Cu252   2.067       .  S
C247        C248   1.389       .  A
C247        H250   1.080       .  S
C248        C249   1.389       .  A
C248        C690   1.488       .  S
C249        H251   1.080       .  S
Cu252       N255   2.067       .  S
Cu253       N263   2.068       .  S
Cu254       N256   2.069       .  S
Cu254       N262   2.069       .  S
N255        N256   1.322       .  A
N255        C259   1.343       .  A
N256        C257   1.344       .  A
C257        C258   1.382       .  A
C257        H260   1.080       .  S
C258        C259   1.381       .  A
C259        H261   1.080       .  S
N262        N263   1.321       .  A
N262        C266   1.343       .  A
N263        C264   1.343       .  A
C264        C265   1.386       .  A
C264        H267   1.082       .  S
C265        C266   1.388       .  A
C265        C700   1.484       .  S
C266        H268   1.081       .  S
O269       Cu277   2.005       .  S
O269        C279   1.278       .  A
O270       Cu277   2.010       .  S
O270        C280   1.278       .  A
O271       Cu277   2.000       .  S
O271        C281   1.277       .  A
O272       Cu277   1.998       .  S
O272        C282   1.277       .  A
O273       Cu278   2.014       .  S
O273        C282   1.279       .  A
O274       Cu278   2.013       .  S
O274        C281   1.279       .  A
O275       Cu278   2.017       .  S
O275        C280   1.279       .  A
O276       Cu278   2.010       .  S
O276        C279   1.279       .  A
Cu277      Cu278   2.368       .  S
C279        C893   1.484       .  S
C280        C683   1.488       .  S
C281        C773   1.484       .  S
C282        C703   1.483       .  S
N283        N284   1.319       .  A
N283        C287   1.341       .  A
N283       Cu291   2.064       .  S
N284        C285   1.343       .  A
N284       Cu290   2.061       .  S
C285        C286   1.387       .  A
C285        H288   1.081       .  S
C286        C287   1.387       .  A
C286        C660   1.483       .  S
C287        H289   1.080       .  S
Cu290       N293   2.062       .  S
Cu291       N301   2.065       .  S
Cu292       N294   2.077       .  S
Cu292       N300   2.077       .  S
N293        N294   1.322       .  A
N293        C297   1.343       .  A
N294        C295   1.345       .  A
C295        C296   1.383       .  A
C295        H298   1.081       .  S
C296        C297   1.380       .  A
C296        C320   1.467       .  S
C297        H299   1.081       .  S
N300        N301   1.320       .  A
N300        C304   1.345       .  A
N301        C302   1.343       .  A
C302        C303   1.387       .  A
C302        H305   1.080       .  S
C303        C304   1.389       .  A
C303        C670   1.487       .  S
C304        H306   1.081       .  S
N307        N308   1.321       .  A
N307        C311   1.345   1_565  A
N307       Cu315   2.084       .  S
N308        C309   1.344       .  A
N308       Cu314   2.068       .  S
C309        C310   1.387   1_565  A
C309        H312   1.081       .  S
C310        C311   1.390       .  A
C310        C650   1.489       .  S
C311        H313   1.081       .  S
Cu314       N317   2.068       .  S
Cu315       N325   2.085       .  S
Cu316       N318   2.065       .  S
Cu316       N324   2.065       .  S
N317        N318   1.321       .  A
N317        C321   1.344       .  A
N318        C319   1.344       .  A
C319        C320   1.382       .  A
C319        H322   1.081       .  S
C320        C321   1.382       .  A
C321        H323   1.080       .  S
N324        N325   1.321       .  A
N324        C328   1.343       .  A
N325        C326   1.346       .  A
C326        C327   1.391       .  A
C326        H329   1.081       .  S
C327        C328   1.385       .  A
C327        C833   1.487       .  S
C328        H330   1.082       .  S
O331       Cu339   2.004       .  S
O331        C341   1.278       .  A
O332       Cu339   2.006       .  S
O332        C342   1.278       .  A
O333       Cu339   2.007       .  S
O333        C343   1.278       .  A
O334       Cu339   2.009       .  S
O334        C344   1.278       .  A
O335       Cu340   2.015       .  S
O335        C344   1.279       .  A
O336       Cu340   2.020       .  S
O336        C343   1.280       .  A
O337       Cu340   2.012       .  S
O337        C342   1.279       .  A
O338       Cu340   2.007       .  S
O338        C341   1.278       .  A
Cu339      Cu340   2.368       .  S
C341        C910   1.480       .  S
C342        C640   1.485       .  S
C343        C733   1.487       .  S
C344        C673   1.487       .  S
O345       Cu353   2.003       .  S
O345        C355   1.278       .  A
O346       Cu353   2.011       .  S
O346        C356   1.278       .  A
O347       Cu353   2.004       .  S
O347        C357   1.277       .  A
O348       Cu353   2.013       .  S
O348        C358   1.278       .  A
O349       Cu354   2.007       .  S
O349        C358   1.279       .  A
O350       Cu354   2.007       .  S
O350        C357   1.278       .  A
O351       Cu354   2.004       .  S
O351        C356   1.278       .  A
O352       Cu354   2.004       .  S
O352        C355   1.277       .  A
Cu353      Cu354   2.370       .  S
C355        C710   1.479       .  S
C356        C793   1.477       .  S
C357        C753   1.481       .  S
C358        C653   1.486       .  S
N359        N360   1.321       .  A
N359        C363   1.347       .  A
N359       Cu367   2.088   1_554  S
N360        C361   1.344       .  A
N360       Cu366   2.068       .  S
C361        C362   1.387       .  A
C361        H364   1.081       .  S
C362        C363   1.391       .  A
C362        C680   1.490       .  S
C363        H365   1.080       .  S
Cu366       N369   2.068       .  S
Cu367       N377   2.088       .  S
Cu368       N370   2.085       .  S
Cu368       N376   2.086       .  S
N369        N370   1.322   1_554  A
N369        C373   1.345       .  A
N370        C371   1.347       .  A
C371        C372   1.386   1_556  A
C371        H374   1.081       .  S
C372        C373   1.382       .  A
C372        C396   1.473       .  S
C373        H375   1.081       .  S
N376        N377   1.323       .  A
N376        C380   1.346       .  A
N377        C378   1.348       .  A
C378        C379   1.388       .  A
C378        H381   1.082       .  S
C379        C380   1.388       .  A
C379        C630   1.489       .  S
C380        H382   1.082       .  S
N383        N384   1.322       .  A
N383        C387   1.345       .  A
N383       Cu391   2.075       .  S
N384        C385   1.345       .  A
N384       Cu390   2.082       .  S
C385        C386   1.389       .  A
C385        H388   1.081       .  S
C386        C387   1.388       .  A
C386        C643   1.489       .  S
C387        H389   1.081       .  S
Cu390       N393   2.082       .  S
Cu391       N401   2.075   1_554  S
Cu392       N394   2.066       .  S
Cu392       N400   2.066       .  S
N393        N394   1.322   1_554  A
N393        C397   1.346       .  A
N394        C395   1.345       .  A
C395        C396   1.382   1_556  A
C395        H398   1.081       .  S
C396        C397   1.386       .  A
C397        H399   1.081       .  S
N400        N401   1.321       .  A
N400        C404   1.342       .  A
N401        C402   1.345       .  A
C402        C403   1.388       .  A
C402        H405   1.082       .  S
C403        C404   1.385       .  A
C403        C620   1.484       .  S
C404        H406   1.082       .  S
N407        N408   1.319       .  A
N407        C411   1.345   1_655  A
N407       Cu415   2.076       .  S
N408        C409   1.343       .  A
N408       Cu414   2.064       .  S
C409        C410   1.388   1_655  A
C409        H412   1.080       .  S
C410        C411   1.390       .  A
C410        C610   1.489       .  S
C411        H413   1.081       .  S
Cu414       N417   2.064       .  S
Cu415       N425   2.076       .  S
Cu416       N418   2.079       .  S
Cu416       N424   2.079       .  S
N417        N418   1.322       .  A
N417        C421   1.343       .  A
N418        C419   1.346       .  A
C419        C420   1.385       .  A
C419        H422   1.080       .  S
C420        C421   1.381       .  A
C420        C444   1.470       .  S
C421        H423   1.080       .  S
N424        N425   1.322       .  A
N424        C428   1.345       .  A
N425        C426   1.344       .  A
C426        C427   1.387       .  A
C426        H429   1.082   1_655  S
C427        C428   1.388       .  A
C427        C803   1.486       .  S
C428        H430   1.082       .  S
N431        N432   1.320       .  A
N431        C435   1.343       .  A
N431       Cu439   2.065       .  S
N432        C433   1.343       .  A
N432       Cu438   2.065       .  S
C433        C434   1.386       .  A
C433        H436   1.082       .  S
C434        C435   1.385       .  A
C434        C590   1.479       .  S
C435        H437   1.082       .  S
Cu438       N441   2.066       .  S
Cu439       N449   2.066       .  S
Cu440       N442   2.078       .  S
Cu440       N448   2.078       .  S
N441        N442   1.322       .  A
N441        C445   1.344       .  A
N442        C443   1.345       .  A
C443        C444   1.384       .  A
C443        H446   1.080       .  S
C444        C445   1.381       .  A
C445        H447   1.080       .  S
N448        N449   1.321       .  A
N448        C452   1.345       .  A
N449        C450   1.343       .  A
C450        C451   1.387       .  A
C450        H453   1.080       .  S
C451        C452   1.390       .  A
C451        C603   1.488       .  S
C452        H454   1.082       .  S
O455       Cu463   2.012       .  S
O455        C465   1.279       .  A
O456       Cu463   2.012       .  S
O456        C466   1.279       .  A
O457       Cu463   2.010       .  S
O457        C467   1.278       .  A
O458       Cu463   2.013       .  S
O458        C468   1.278       .  A
O459       Cu464   2.014       .  S
O459        C468   1.280       .  A
O460       Cu464   2.011       .  S
O460        C467   1.279       .  A
O461       Cu464   1.996       .  S
O461        C466   1.276       .  A
O462       Cu464   1.999       .  S
O462        C465   1.276       .  A
Cu463      Cu464   2.368       .  S
C465        C623   1.482       .  S
C466        C853   1.481       .  S
C467        C600   1.486       .  S
C468        C780   1.488       .  S
N469        N470   1.319   1_565  A
N469        C473   1.343       .  A
N469       Cu477   2.062   1_565  S
N470        C471   1.343   1_545  A
N470       Cu476   2.064       .  S
C471        C472   1.388       .  A
C471        H474   1.080   1_565  S
C472        C473   1.388       .  A
C472        C580   1.485       .  S
C473        H475   1.081       .  S
Cu476       N479   2.064       .  S
Cu477       N487   2.062       .  S
Cu478       N480   2.067       .  S
Cu478       N486   2.068       .  S
N479        N480   1.322       .  A
N479        C483   1.343       .  A
N480        C481   1.344       .  A
C481        C482   1.382       .  A
C481        H484   1.081       .  S
C482        C483   1.380       .  A
C482        C506   1.464       .  S
C483        H485   1.080       .  S
N486        N487   1.321       .  A
N486        C490   1.345       .  A
N487        C488   1.340       .  A
C488        C489   1.385       .  A
C488        H491   1.081   1_545  S
C489        C490   1.388       .  A
C489        C823   1.482       .  S
C490        H492   1.082       .  S
N493        N494   1.319       .  A
N493        C497   1.342       .  A
N493       Cu501   2.070       .  S
N494        C495   1.341       .  A
N494       Cu500   2.055       .  S
C495        C496   1.386       .  A
C495        H498   1.080       .  S
C496        C497   1.389       .  A
C496        C560   1.484       .  S
C497        H499   1.081       .  S
Cu500       N503   2.055       .  S
Cu501       N511   2.070       .  S
Cu502       N504   2.069       .  S
Cu502       N510   2.069       .  S
N503        N504   1.321       .  A
N503        C507   1.342       .  A
N504        C505   1.343       .  A
C505        C506   1.382       .  A
C505        H508   1.081       .  S
C506        C507   1.380       .  A
C507        H509   1.081       .  S
N510        N511   1.321       .  A
N510        C514   1.344       .  A
N511        C512   1.343       .  A
C512        C513   1.387       .  A
C512        H515   1.080       .  S
C513        C514   1.387       .  A
C513        C570   1.483       .  S
C514        H516   1.080       .  S
O517       Cu525   2.021       .  S
O517        C527   1.279       .  A
O518       Cu525   2.011       .  S
O518        C528   1.279       .  A
O519       Cu525   2.002       .  S
O519        C529   1.278       .  A
O520       Cu525   2.006       .  S
O520        C530   1.278       .  A
O521       Cu526   2.009       .  S
O521        C530   1.278       .  A
O522       Cu526   2.010       .  S
O522        C529   1.278       .  A
O523       Cu526   2.015       .  S
O523        C528   1.279       .  A
O524       Cu526   2.017       .  S
O524        C527   1.279       .  A
Cu525      Cu526   2.367       .  S
C527        C633   1.490       .  S
C528        C873   1.488       .  S
C529        C573   1.484       .  S
C530        C743   1.485       .  S
O531       Cu539   2.008       .  S
O531        C541   1.278       .  A
O532       Cu539   2.007       .  S
O532        C542   1.278       .  A
O533       Cu539   2.006       .  S
O533        C543   1.278       .  A
O534       Cu539   2.007       .  S
O534        C544   1.278       .  A
O535       Cu540   2.006       .  S
O535        C544   1.278       .  A
O536       Cu540   2.004       .  S
O536        C543   1.278       .  A
O537       Cu540   2.014       .  S
O537        C542   1.279       .  A
O538       Cu540   2.014       .  S
O538        C541   1.279       .  A
Cu539      Cu540   2.368       .  S
C541        C763   1.487       .  S
C542        C613   1.487       .  S
C543        C583   1.483       .  S
C544        C723   1.483       .  S
O545       Cu553   1.992       .  S
O545        C555   1.276       .  A
O546       Cu553   1.997       .  S
O546        C556   1.276       .  A
O547       Cu553   2.001       .  S
O547        C557   1.278       .  A
O548       Cu553   2.002       .  S
O548        C558   1.277       .  A
O549       Cu554   1.997       .  S
O549        C558   1.277       .  A
O550       Cu554   2.001       .  S
O550        C557   1.277       .  A
O551       Cu554   2.002       .  S
O551        C556   1.278       .  A
O552       Cu554   2.004       .  S
O552        C555   1.278       .  A
Cu553      Cu554   2.371       .  S
C555        C563   1.477       .  S
C556        C663   1.478       .  S
C557        C693   1.476       .  S
C558        C593   1.478       .  S
C559        C560   1.405       .  A
C559        C564   1.394       .  A
C559        H566   1.082       .  S
C560        C561   1.411       .  A
C561        C562   1.396       .  A
C561        F568   1.355       .  S
C562        C563   1.403       .  A
C562        H567   1.084       .  S
C563        C564   1.407       .  A
C564        F565   1.358       .  S
C569        C570   1.405       .  A
C569        C574   1.397       .  A
C569        H576   1.082       .  S
C570        C571   1.408       .  A
C571        C572   1.397       .  A
C571        F578   1.357       .  S
C572        C573   1.406       .  A
C572        H577   1.083       .  S
C573        C574   1.409       .  A
C574        F575   1.357       .  S
C579        C580   1.406       .  A
C579        C584   1.397       .  A
C579        H586   1.082       .  S
C580        C581   1.409       .  A
C581        C582   1.397       .  A
C581        F588   1.356       .  S
C582        C583   1.405       .  A
C582        H587   1.083       .  S
C583        C584   1.408       .  A
C584        F585   1.357       .  S
C589        C590   1.405       .  A
C589        C594   1.396       .  A
C589        H596   1.083       .  S
C590        C591   1.407       .  A
C591        C592   1.395       .  A
C591        F598   1.357       .  S
C592        C593   1.405       .  A
C592        H597   1.083       .  S
C593        C594   1.408       .  A
C594        F595   1.357       .  S
C599        C600   1.406       .  A
C599        C604   1.399       .  A
C599        H606   1.082       .  S
C600        C601   1.409       .  A
C601        C602   1.397       .  A
C601        F608   1.357       .  S
C602        C603   1.406       .  A
C602        H607   1.081       .  S
C603        C604   1.409       .  A
C604        F605   1.356       .  S
C609        C610   1.405       .  A
C609        C614   1.397       .  A
C609        H616   1.082       .  S
C610        C611   1.411       .  A
C611        C612   1.400       .  A
C611        F618   1.356       .  S
C612        C613   1.406       .  A
C612        H617   1.083       .  S
C613        C614   1.409       .  A
C614        F615   1.357       .  S
C619        C620   1.405       .  A
C619        C624   1.398       .  A
C619        H626   1.083       .  S
C620        C621   1.409       .  A
C621        C622   1.397       .  A
C621        F628   1.356       .  S
C622        C623   1.404       .  A
C622        H627   1.083       .  S
C623        C624   1.410       .  A
C624        F625   1.358       .  S
C629        C630   1.405       .  A
C629        C634   1.399       .  A
C629        H636   1.083       .  S
C630        C631   1.409       .  A
C631        C632   1.404       .  A
C631        F638   1.357       .  S
C632        C633   1.408       .  A
C632        H637   1.084       .  S
C633        C634   1.409       .  A
C634        F635   1.357       .  S
C639        C640   1.405       .  A
C639        C644   1.399       .  A
C639        H646   1.083       .  S
C640        C641   1.409       .  A
C641        C642   1.398       .  A
C641        F648   1.357       .  S
C642        C643   1.406       .  A
C642        H647   1.082       .  S
C643        C644   1.410       .  A
C644        F645   1.356       .  S
C649        C650   1.408       .  A
C649        C654   1.401       .  A
C649        H656   1.082       .  S
C650        C651   1.408       .  A
C651        C652   1.397       .  A
C651        F658   1.356       .  S
C652        C653   1.405       .  A
C652        H657   1.082       .  S
C653        C654   1.409       .  A
C654        F655   1.358       .  S
C659        C660   1.406       .  A
C659        C664   1.396       .  A
C659        H666   1.081       .  S
C660        C661   1.409       .  A
C661        C662   1.395       .  A
C661        F668   1.355       .  S
C662        C663   1.403       .  A
C662        H667   1.083       .  S
C663        C664   1.408       .  A
C664        F665   1.358       .  S
C669        C670   1.406       .  A
C669        C674   1.399       .  A
C669        H676   1.082       .  S
C670        C671   1.409       .  A
C671        C672   1.398       .  A
C671        F678   1.356       .  S
C672        C673   1.406       .  A
C672        H677   1.083       .  S
C673        C674   1.409       .  A
C674        F675   1.357       .  S
C679        C680   1.405       .  A
C679        C684   1.399       .  A
C679        H686   1.082       .  S
C680        C681   1.411       .  A
C681        C682   1.401       .  A
C681        F688   1.356       .  S
C682        C683   1.406       .  A
C682        H687   1.083       .  S
C683        C684   1.409       .  A
C684        F685   1.357       .  S
C689        C690   1.408       .  A
C689        C694   1.396       .  A
C689        H696   1.081       .  S
C690        C691   1.411       .  A
C691        C692   1.396       .  A
C691        F698   1.355       .  S
C692        C693   1.403       .  A
C692        H697   1.083       .  S
C693        C694   1.406       .  A
C694        F695   1.358       .  S
C699        C700   1.406       .  A
C699        C704   1.398       .  A
C699        H706   1.083       .  S
C700        C701   1.408       .  A
C701        C702   1.396       .  A
C701        F708   1.356       .  S
C702        C703   1.406       .  A
C702        H707   1.083       .  S
C703        C704   1.408       .  A
C704        F705   1.357       .  S
C709        C710   1.404       .  A
C709        C714   1.394       .  A
C709        H716   1.083       .  S
C710        C711   1.409       .  A
C711        C712   1.398       .  A
C711        F718   1.358       .  S
C712        C713   1.405       .  A
C712        H717   1.082       .  S
C713        C714   1.407       .  A
C714        F715   1.356       .  S
C719        C720   1.405       .  A
C719        C724   1.397       .  A
C719        H726   1.082       .  S
C720        C721   1.408       .  A
C721        C722   1.397       .  A
C721        F728   1.357       .  S
C722        C723   1.406       .  A
C722        H727   1.083       .  S
C723        C724   1.409       .  A
C724        F725   1.357       .  S
C729        C730   1.404       .  A
C729        C734   1.399       .  A
C729        H736   1.083       .  S
C730        C731   1.409       .  A
C731        C732   1.400       .  A
C731        F738   1.357       .  S
C732        C733   1.406       .  A
C732        H737   1.083       .  S
C733        C734   1.410       .  A
C734        F735   1.357       .  S
C739        C740   1.406       .  A
C739        C744   1.397       .  A
C739        H746   1.082       .  S
C740        C741   1.410       .  A
C741        C742   1.398       .  A
C741        F748   1.356       .  S
C742        C743   1.405       .  A
C742        H747   1.083       .  S
C743        C744   1.409       .  A
C744        F745   1.357       .  S
C749        C750   1.404       .  A
C749        C754   1.397       .  A
C749        H756   1.082       .  S
C750        C751   1.407       .  A
C751        C752   1.397       .  A
C751        F758   1.357       .  S
C752        C753   1.406       .  A
C752        H757   1.083       .  S
C753        C754   1.409       .  A
C754        F755   1.357       .  S
C759        C760   1.406       .  A
C759        C764   1.399       .  A
C759        H766   1.081       .  S
C760        C761   1.410       .  A
C761        C762   1.399       .  A
C761        F768   1.356       .  S
C762        C763   1.406       .  A
C762        H767   1.082       .  S
C763        C764   1.409       .  A
C764        F765   1.357       .  S
C769        C770   1.410       .  A
C769        C774   1.399       .  A
C769        H776   1.079       .  S
C770        C771   1.413       .  A
C771        C772   1.397       .  A
C771        F778   1.354       .  S
C772        C773   1.404       .  A
C772        H777   1.082       .  S
C773        C774   1.406       .  A
C774        F775   1.357       .  S
C779        C780   1.405       .  A
C779        C784   1.397       .  A
C779        H786   1.083       .  S
C780        C781   1.412       .  A
C781        C782   1.403       .  A
C781        F788   1.358       .  S
C782        C783   1.406       .  A
C782        H787   1.083       .  S
C783        C784   1.407       .  A
C784        F785   1.356       .  S
C789        C790   1.407       .  A
C789        C794   1.400       .  A
C789        H796   1.083       .  S
C790        C791   1.410       .  A
C791        C792   1.397       .  A
C791        F798   1.356       .  S
C792        C793   1.402       .  A
C792        H797   1.084       .  S
C793        C794   1.406       .  A
C794        F795   1.358       .  S
C799        C800   1.406   1_455  A
C799        C804   1.398   1_455  A
C799        H806   1.084       .  S
C800        C801   1.409       .  A
C801        C802   1.398       .  A
C801        F808   1.357       .  S
C802        C803   1.405       .  A
C802        H807   1.083       .  S
C803        C804   1.409       .  A
C804        F805   1.356   1_655  S
C809        C810   1.405   1_655  A
C809        C814   1.396       .  A
C809        H816   1.083       .  S
C810        C811   1.408       .  A
C811        C812   1.396       .  A
C811        F818   1.357       .  S
C812        C813   1.405       .  A
C812        H817   1.082       .  S
C813        C814   1.410   1_455  A
C814        F815   1.356       .  S
C819        C820   1.403   1_565  A
C819        C824   1.395       .  A
C819        H826   1.083       .  S
C820        C821   1.410       .  A
C821        C822   1.397       .  A
C821        F828   1.358       .  S
C822        C823   1.405       .  A
C822        H827   1.083       .  S
C823        C824   1.409   1_545  A
C824        F825   1.356       .  S
C829        C830   1.405       .  A
C829        C834   1.396       .  A
C829        H836   1.083   1_565  S
C830        C831   1.407       .  A
C831        C832   1.400       .  A
C831        F838   1.358       .  S
C832        C833   1.408       .  A
C832        H837   1.082       .  S
C833        C834   1.408       .  A
C834        F835   1.356   1_565  S
C839        C840   1.408   1_565  A
C839        C844   1.398       .  A
C839        H846   1.080       .  S
C840        C841   1.410       .  A
C841        C842   1.395       .  A
C841        F848   1.355       .  S
C842        C843   1.404       .  A
C842        H847   1.082       .  S
C843        C844   1.408   1_545  A
C844        F845   1.358       .  S
C849        C850   1.405       .  A
C849        C854   1.396       .  A
C849        H856   1.083       .  S
C850        C851   1.408       .  A
C851        C852   1.397       .  A
C851        F858   1.357       .  S
C852        C853   1.406       .  A
C852        H857   1.084       .  S
C853        C854   1.407       .  A
C854        F855   1.357       .  S
C859        C860   1.406       .  A
C859        C864   1.397       .  A
C859        H866   1.080       .  S
C860        C861   1.409       .  A
C861        C862   1.398   1_655  A
C861        F868   1.356   1_655  S
C862        C863   1.405   1_455  A
C862        H867   1.082       .  S
C863        C864   1.408       .  A
C864        F865   1.358       .  S
C869        C870   1.404       .  A
C869        C874   1.398       .  A
C869        H876   1.082       .  S
C870        C871   1.409       .  A
C871        C872   1.401       .  A
C871        F878   1.357       .  S
C872        C873   1.407       .  A
C872        H877   1.082       .  S
C873        C874   1.410       .  A
C874        F875   1.357       .  S
C879        C880   1.404       .  A
C879        C884   1.395       .  A
C879        H886   1.082   1_565  S
C880        C881   1.408       .  A
C881        C882   1.399       .  A
C881        F888   1.358       .  S
C882        C883   1.406       .  A
C882        H887   1.080       .  S
C883        C884   1.408       .  A
C884        F885   1.356   1_565  S
C889        C890   1.408       .  A
C889        C894   1.396       .  A
C889        H896   1.081       .  S
C890        C891   1.413       .  A
C891        C892   1.398       .  A
C891        F898   1.355       .  S
C892        C893   1.404       .  A
C892        H897   1.083       .  S
C893        C894   1.407       .  A
C894        F895   1.357       .  S
C899        C900   1.405   1_655  A
C899        C904   1.398       .  A
C899        H906   1.082       .  S
C900        C901   1.409       .  A
C901        C902   1.397       .  A
C901        F908   1.356       .  S
C902        C903   1.405       .  A
C902        H907   1.083       .  S
C903        C904   1.410   1_455  A
C904        F905   1.357       .  S
C909        C910   1.405       .  A
C909        C914   1.398       .  A
C909        H916   1.083       .  S
C910        C911   1.408       .  A
C911        C912   1.395       .  A
C911        F918   1.357       .  S
C912        C913   1.404       .  A
C912        H917   1.082       .  S
C913        C914   1.409       .  A
C914        F915   1.357       .  S
