geometry optimzed in LAMMPS
_audit_creation_date              2020-11-30 
_audit_creation_method            'lammps2cif' 
_symmetry_space_group_name_H-M    'P1' 
_symmetry_Int_Tables_number       1 
_symmetry_cell_setting            triclinic 
loop_ 
_symmetry_equiv_pos_as_xyz 
  x,y,z 
_cell_length_a                    36.95557291194841 
_cell_length_b                    36.04711281904377 
_cell_length_c                    39.74326086467234 
_cell_angle_alpha                 89.43456229745873 
_cell_angle_beta                  89.05071149860345 
_cell_angle_gamma                 91.43535662952223 
loop_ 
_atom_site_label 
_atom_site_type_symbol 
_atom_site_fract_x 
_atom_site_fract_y 
_atom_site_fract_z 
_atom_site_charge 
O1          O  0.41581528  0.47379989  0.47267887    -0.79240
O2          O  0.07723670  0.04681526  0.47207272    -0.79260
O3          O  0.45744157  0.08598827  0.48130706    -0.79270
O4          O  0.02978092  0.42193945  0.48061983    -0.79210
O5          O  0.00584860  0.05915837  0.45729866    -0.79340
O6          O  0.47708274  0.43503282  0.45876209    -0.79260
O7          O  0.06036268  0.48953758  0.46018809    -0.79240
O8          O  0.44618190  0.02083772  0.45203890    -0.79280
C9          C  0.41874674  0.49953079  0.45159956     1.10450
C10         C  0.08283038  0.01733273  0.45566177     1.10330
C11         C  0.48399488  0.08698542  0.46000255     1.10470
C12         C  0.00471373  0.41540776  0.45969278     1.10350
O13         O  0.47849817  0.41455582  0.52809833    -0.79240
O14         O  0.02985361  0.07415184  0.52233110    -0.79320
O15         O  0.41732637  0.02513574  0.52096518    -0.79250
O16         O  0.08719595  0.45739980  0.51640916    -0.79230
O17         O  0.06710458  0.01182233  0.53208016    -0.79290
O18         O  0.42710900  0.46769636  0.54044215    -0.79250
O19         O  0.02426802  0.44578353  0.54945039    -0.79210
O20         O  0.47777787  0.05625223  0.54170026    -0.79280
Co21       Co  0.45297402  0.45077959  0.50013485     1.51530
Co22       Co  0.03323234  0.02909782  0.49341058     1.51690
Co23       Co  0.46507005  0.03709464  0.49701906     1.51570
Co24       Co  0.03873392  0.46954864  0.50583928     1.51470
O25         O  0.48996728  0.49303781  0.50597963    -1.41180
C26         C  0.50296869  0.41788870  0.54953958     1.10380
C27         C  0.50417414  0.07862189  0.54303083     1.10470
C28         C  0.40952238  0.49758460  0.54077002     1.10400
C29         C  0.09126269  0.98653417  0.53370900     1.10380
C30         C  0.50432988  0.21779008  0.37580286     0.04030
C31         C  0.50353910  0.25039787  0.39413184    -0.12120
C32         C  0.50074266  0.28439939  0.37776441     0.01530
C33         C  0.49751210  0.28588566  0.34266593    -0.10650
C34         C  0.50049304  0.25350852  0.32321807     0.04020
C35         C  0.50468437  0.21935645  0.34043172    -0.10070
H36         H  0.50419601  0.24924732  0.42138684     0.09610
H37         H  0.49274784  0.31241464  0.33074312     0.07140
H38         H  0.50757052  0.19382692  0.32666608     0.06990
C39         C  0.28456085  0.50778721  0.37769203     0.04030
C40         C  0.25117981  0.01022910  0.39517807    -0.12120
C41         C  0.21857122  0.51321421  0.37769282     0.01530
C42         C  0.21944435  0.51315321  0.34235380    -0.10650
C43         C  0.25223936  0.50895333  0.32442846     0.04020
C44         C  0.28455473  0.50683624  0.34238280    -0.10070
H45         H  0.25052757  0.00962178  0.42242710     0.09610
H46         H  0.19434411  0.51520290  0.32881906     0.07140
H47         H  0.30994785  0.50406715  0.32874363     0.06990
C48         C  0.27980101  0.49884046  0.62547161     0.04030
C49         C  0.24818801  0.00561543  0.60743463    -0.12120
C50         C  0.21410517  0.50441741  0.62309775     0.01530
C51         C  0.21163530  0.50178879  0.65843786    -0.10650
C52         C  0.24305546  0.49778255  0.67765505     0.04020
C53         C  0.27673401  0.49433956  0.66072667    -0.10070
H54         H  0.24983932  0.00962764  0.58041552     0.09610
H55         H  0.18533212  0.50277561  0.67080668     0.07140
H56         H  0.30035638  0.48820053  0.67528543     0.06990
C57         C  0.49987983  0.21295402  0.62278596     0.04030
C58         C  0.50023101  0.24751260  0.60632738    -0.12120
C59         C  0.50151836  0.28050171  0.62491956     0.01530
C60         C  0.50163976  0.27831832  0.66019876    -0.10650
C61         C  0.49999826  0.24374237  0.67684361     0.04020
C62         C  0.49905459  0.21113942  0.65793964    -0.10070
H63         H  0.50004398  0.24865880  0.57909157     0.09610
H64         H  0.50331364  0.30355336  0.67477024     0.07140
H65         H  0.49790608  0.18430822  0.67055405     0.06990
C66         C  0.24499984  0.45945795  0.12595964     0.04030
C67         C  0.25064909  0.46060045  0.16075028    -0.12120
C68         C  0.25314718  0.49476319  0.17756918     0.01530
C69         C  0.25348078  0.02775485  0.15821057    -0.10650
C70         C  0.24864621  0.02746238  0.12311799     0.04020
C71         C  0.24236455  0.49281061  0.10770835    -0.10070
H72         H  0.25308503  0.43480838  0.17466239     0.09610
H73         H  0.25760071  0.05392241  0.17073597     0.07140
H74         H  0.23635366  0.49139676  0.08121061     0.06990
O75         O  0.26160059  0.29717197  0.05003368    -0.79240
O76         O  0.23707337  0.19148212  0.04904397    -0.79260
O77         O  0.16183709  0.28062521  0.01532478    -0.79270
O78         O  0.30969192  0.23304680  0.03505205    -0.79210
O79         O  0.18494458  0.24095909  0.05020448    -0.79340
O80         O  0.33036534  0.28992148  0.02493806    -0.79260
O81         O  0.27556554  0.16905913  0.01419094    -0.79240
O82         O  0.22140909  0.32791042  0.02070311    -0.79280
C83         C  0.24099575  0.32456031  0.04679266     1.10450
C84         C  0.25709890  0.16530339  0.04132682     1.10330
C85         C  0.15945757  0.26152810  0.04237245     1.10470
C86         C  0.33363787  0.25902748  0.03986745     1.10350
O87         O  0.31041056  0.26451111  0.96374262    -0.79240
O88         O  0.16143712  0.21896198  0.98405580    -0.79320
O89         O  0.24258177  0.30717946  0.95112473    -0.79250
O90         O  0.25948089  0.20036485  0.94996063    -0.79230
O91         O  0.21731569  0.16993996  0.97996809    -0.79290
O92         O  0.28090353  0.32906975  0.98615350    -0.79250
O93         O  0.32816914  0.20744076  0.97308995    -0.79210
O94         O  0.18655680  0.25930468  0.94935577    -0.79280
Co95       Co  0.28369386  0.27777495  0.00835567     1.51530
Co96       Co  0.20249021  0.20762563  0.01544742     1.51690
Co97       Co  0.20533724  0.29145625  0.98451033     1.51570
Co98       Co  0.28212382  0.21990469  0.99108464     1.51470
O99         O  0.23686612  0.24924354  0.99991227    -1.41180
C100        C  0.33217838  0.23800893  0.95725800     1.10380
C101        C  0.16042293  0.23772036  0.95681835     1.10470
C102        C  0.26288788  0.33362454  0.95965441     1.10400
C103        C  0.23779983  0.17277263  0.95371800     1.10380
C104        C  0.02742769  0.25070142  0.12350631     0.04030
C105        C  0.02789164  0.25617145  0.15814932    -0.12120
C106        C  0.49529184  0.25982433  0.17613861     0.01530
C107        C  0.46253879  0.26156464  0.15858562    -0.10650
C108        C  0.46140900  0.25373400  0.12384525     0.04020
C109        C  0.49441632  0.24555660  0.10746593    -0.10070
H110        H  0.05350935  0.25731409  0.17105123     0.09610
H111        H  0.43837004  0.26877402  0.17243644     0.07140
H112        H  0.49508236  0.23676885  0.08155292     0.06990
C113        C  0.24970355  0.46976026  0.88015011     0.04030
C114        C  0.24918518  0.46788509  0.84480984    -0.12120
C115        C  0.24415193  0.50011818  0.82515282     0.01530
C116        C  0.23985364  0.03420174  0.84154042    -0.10650
C117        C  0.24212441  0.03657647  0.87659267     0.04020
C118        C  0.24660343  0.50422184  0.89582653    -0.10070
H119        H  0.25273005  0.44138922  0.83270817     0.09610
H120        H  0.23561640  0.05922849  0.82693572     0.07140
H121        H  0.24788873  0.50590916  0.92298201     0.06990
C122        C  0.02810119  0.24323654  0.87797184     0.04030
C123        C  0.02986644  0.24322094  0.84259961    -0.12120
C124        C  0.49818860  0.24109653  0.82349272     0.01530
C125        C  0.46459817  0.23883870  0.84056541    -0.10650
C126        C  0.46231761  0.24172599  0.87558226     0.04020
C127        C  0.49415166  0.24379429  0.89411969    -0.10070
H128        H  0.05605155  0.24479282  0.83003100     0.09610
H129        H  0.43987516  0.23590042  0.82650650     0.07140
H130        H  0.49244625  0.24550127  0.92129259     0.06990
C131        C  0.23993398  0.14078174  0.92999036    -0.04440
C132        C  0.20883749  0.12720541  0.91333585    -0.01560
C133        C  0.20954094  0.09345442  0.89551608     0.03430
C134        C  0.24166136  0.07338615  0.89322546    -0.04440
C135        C  0.27344399  0.08799033  0.90759381    -0.01550
C136        C  0.27253882  0.12093236  0.92650970     0.03430
C137        C  0.17598199  0.14791451  0.91359065     0.38080
C138        C  0.30708797  0.06831353  0.90379625     0.38070
C139        C  0.30432994  0.13060330  0.94579231     0.36490
C140        C  0.17684153  0.07873379  0.88029343     0.36490
N141        N  0.33042099  0.13508436  0.96107679    -0.38330
N142        N  0.15079347  0.06690738  0.86817506    -0.38330
N143        N  0.33391131  0.05269770  0.90079826    -0.37770
N144        N  0.14898894  0.16321074  0.91206872    -0.37780
C145        C  0.26033115  0.37015266  0.94131626    -0.04440
C146        C  0.29125483  0.39163891  0.93114624    -0.01560
C147        C  0.28772306  0.42421264  0.91135504     0.03430
C148        C  0.25337892  0.43555922  0.90111847    -0.04440
C149        C  0.22233077  0.41514010  0.91205705    -0.01550
C150        C  0.22564606  0.38308359  0.93244949     0.03430
C151        C  0.32710388  0.38057322  0.93990388     0.38080
C152        C  0.18681284  0.42740037  0.90243788     0.38070
C153        C  0.19296123  0.36450100  0.94549703     0.36490
C154        C  0.31961117  0.44615568  0.90127937     0.36490
N155        N  0.16675422  0.35004739  0.95596905    -0.38330
N156        N  0.34507181  0.46364105  0.89333309    -0.38330
N157        N  0.15854887  0.43726273  0.89468949    -0.37770
N158        N  0.35683719  0.37420052  0.94563558    -0.37780
C159        C  0.42692701  0.25489556  0.10379344    -0.04440
C160        C  0.39222893  0.24320799  0.11712767    -0.01560
C161        C  0.36094217  0.24571961  0.09693655     0.03430
C162        C  0.36481959  0.25330432  0.06222178    -0.04440
C163        C  0.39972877  0.25744880  0.04846107    -0.01550
C164        C  0.42879514  0.26542182  0.06924176     0.03430
C165        C  0.38800764  0.22739640  0.15062466     0.38080
C166        C  0.40783356  0.24196330  0.01590457     0.38070
C167        C  0.45933076  0.28596244  0.05422861     0.36490
C168        C  0.32514372  0.23933579  0.11154141     0.36490
N169        N  0.48336009  0.30242169  0.04175641    -0.38330
N170        N  0.29658043  0.23435845  0.12332217    -0.38330
N171        N  0.41591199  0.22710765  0.99133240    -0.37770
N172        N  0.38379479  0.21464995  0.17728370    -0.37780
C173        C  0.12513960  0.25902447  0.06270114    -0.04440
C174        C  0.11364228  0.22440341  0.07738166    -0.01560
C175        C  0.08182094  0.22175383  0.09735828     0.03430
C176        C  0.06131171  0.25339734  0.10310616    -0.04440
C177        C  0.07204910  0.28768932  0.08807468    -0.01550
C178        C  0.10334230  0.29036254  0.06727668     0.03430
C179        C  0.13337383  0.19079389  0.07082868     0.38080
C180        C  0.05098657  0.32041341  0.09443796     0.38070
C181        C  0.11357804  0.32573301  0.05165122     0.36490
C182        C  0.06974902  0.18627274  0.11164616     0.36490
N183        N  0.12177586  0.35399325  0.03931416    -0.38330
N184        N  0.06004192  0.15795783  0.12293478    -0.38330
N185        N  0.03418824  0.34646361  0.09967808    -0.37770
N186        N  0.14902024  0.16397665  0.06559564    -0.37780
C187        C  0.36169195  0.24333745  0.93179447    -0.04440
C188        C  0.36628835  0.21733610  0.90592547    -0.01560
C189        C  0.39957259  0.21565097  0.88838145     0.03430
C190        C  0.42652341  0.24353272  0.89304367    -0.04440
C191        C  0.41926570  0.27331626  0.91479489    -0.01550
C192        C  0.38779452  0.27234783  0.93523365     0.03430
C193        C  0.33581278  0.19515730  0.89460354     0.38080
C194        C  0.44450572  0.30473767  0.91675414     0.38070
C195        C  0.38519231  0.29866597  0.96240238     0.36490
C196        C  0.40641357  0.18426260  0.86679598     0.36490
N197        N  0.38553447  0.31912100  0.98464917    -0.38330
N198        N  0.41199525  0.15914805  0.84971884    -0.38330
N199        N  0.46452064  0.32984219  0.91835950    -0.37770
N200        N  0.31173930  0.17858365  0.88343395    -0.37780
C201        C  0.12687593  0.23793203  0.93570665    -0.04440
C202        C  0.12402428  0.26330807  0.90811009    -0.01560
C203        C  0.09100859  0.26688630  0.89127130     0.03430
C204        C  0.06177043  0.24195694  0.89823687    -0.04440
C205        C  0.06506045  0.21510472  0.92414390    -0.01550
C206        C  0.09640900  0.21440000  0.94389485     0.03430
C207        C  0.15480357  0.28570551  0.89587184     0.38080
C208        C  0.03654205  0.18720958  0.93010875     0.38070
C209        C  0.09708164  0.18815604  0.97184848     0.36490
C210        C  0.08685069  0.29737226  0.86753760     0.36490
N211        N  0.09733205  0.16711704  0.99402948    -0.38330
N212        N  0.08352933  0.32173999  0.84874839    -0.38330
N213        N  0.01384750  0.16500098  0.93496399    -0.37770
N214        N  0.17915390  0.30338584  0.88548564    -0.37780
C215        C  0.25618277  0.13049315  0.06293074    -0.04440
C216        C  0.24162147  0.13042181  0.09636491    -0.01560
C217        C  0.23599446  0.09659808  0.11449522     0.03430
C218        C  0.25112711  0.06318544  0.10261934    -0.04440
C219        C  0.26823434  0.06432134  0.07042280    -0.01550
C220        C  0.26578931  0.09590589  0.04955796     0.03430
C221        C  0.23060712  0.16460409  0.11212974     0.38080
C222        C  0.28804226  0.03316451  0.05740488     0.38070
C223        C  0.26394053  0.08906488  0.01400443     0.36490
C224        C  0.21240987  0.09630580  0.14408210     0.36490
N225        N  0.25979490  0.07916375  0.98678696    -0.38330
N226        N  0.19343569  0.09626411  0.16755088    -0.38330
N227        N  0.30385911  0.00898452  0.04581207    -0.37770
N228        N  0.22154173  0.19161966  0.12493162    -0.37780
C229        C  0.24470266  0.42330468  0.10790034    -0.04440
C230        C  0.27549612  0.41296796  0.08911940    -0.01560
C231        C  0.27451577  0.38053834  0.06944661     0.03430
C232        C  0.24378581  0.35622341  0.07068755    -0.04440
C233        C  0.21488037  0.36445962  0.09277723    -0.01550
C234        C  0.21426879  0.39887878  0.10956237     0.03430
C235        C  0.30860193  0.43535079  0.09061292     0.38080
C236        C  0.18793601  0.33608348  0.10135932     0.38070
C237        C  0.18171785  0.40967642  0.12731813     0.36490
C238        C  0.30528751  0.37298148  0.04775325     0.36490
N239        N  0.15525120  0.41835596  0.14069668    -0.38330
N240        N  0.33048240  0.36844522  0.03076556    -0.38330
N241        N  0.16732668  0.31327702  0.11030034    -0.37770
N242        N  0.33525681  0.45274568  0.09217548    -0.37780
C243        C  0.49951484  0.24194414  0.71423879    -0.04440
C244        C  0.47231456  0.26000401  0.73254079    -0.01560
C245        C  0.47458723  0.26331061  0.76759444     0.03430
C246        C  0.49963596  0.24194318  0.78572175    -0.04440
C247        C  0.02485172  0.22059717  0.76729911    -0.01550
C248        C  0.02634513  0.22282222  0.73181575     0.03430
C249        C  0.43979657  0.27169607  0.71604716     0.38080
C250        C  0.04845569  0.19517007  0.78429356     0.38070
C251        C  0.05563270  0.20554304  0.71348026     0.36490
C252        C  0.45159633  0.28976195  0.78439892     0.36490
N253        N  0.07905408  0.19193163  0.69882332    -0.38330
N254        N  0.43318805  0.31086152  0.79763563    -0.38330
N255        N  0.06736722  0.17484916  0.79771397    -0.37770
N256        N  0.41270689  0.27948684  0.70402292    -0.37780
C257        C  0.24161177  0.49865210  0.71551163    -0.04440
C258        C  0.21962982  0.47337716  0.73484538    -0.01560
C259        C  0.21983069  0.47433448  0.77049164     0.03430
C260        C  0.24380122  0.49878948  0.78736934    -0.04440
C261        C  0.26607029  0.02363571  0.76794513    -0.01550
C262        C  0.26301924  0.02522508  0.73262427     0.03430
C263        C  0.19625400  0.44649585  0.71855321     0.38080
C264        C  0.29296608  0.04715083  0.78408690     0.38070
C265        C  0.27909908  0.05662719  0.71428182     0.36490
C266        C  0.19433705  0.45095436  0.78974205     0.36490
N267        N  0.29079451  0.08249052  0.70001413    -0.38330
N268        N  0.17392178  0.43243785  0.80511647    -0.38330
N269        N  0.31452264  0.06571690  0.79700221    -0.37770
N270        N  0.17689299  0.42478348  0.70669547    -0.37780
C271        C  0.25460399  0.49649400  0.21543618    -0.04440
C272        C  0.27945877  0.02092478  0.23144233    -0.01560
C273        C  0.27696016  0.02685243  0.26648126     0.03430
C274        C  0.25281423  0.50501480  0.28687233    -0.04440
C275        C  0.23018288  0.47823897  0.27133981    -0.01550
C276        C  0.22965053  0.47543297  0.23592608     0.03430
C277        C  0.30863205  0.03922664  0.21225175     0.38080
C278        C  0.20795651  0.45263243  0.29176746     0.38070
C279        C  0.20230547  0.45150054  0.22106063     0.36490
C280        C  0.29856199  0.05645896  0.28127195     0.36490
N281        N  0.18022434  0.43212347  0.20996785    -0.38330
N282        N  0.31563835  0.08015111  0.29310328    -0.38330
N283        N  0.19035308  0.43213028  0.30803050    -0.37770
N284        N  0.33193383  0.05384223  0.19701499    -0.37780
C285        C  0.49874435  0.25551445  0.28524815    -0.04440
C286        C  0.47828951  0.22876449  0.26693274    -0.01560
C287        C  0.47843970  0.22968330  0.23144092     0.03430
C288        C  0.49541958  0.25944362  0.21358947    -0.04440
C289        C  0.01457597  0.28696062  0.23136605    -0.01550
C290        C  0.01760627  0.28424074  0.26669085     0.03430
C291        C  0.45618407  0.20027154  0.28382990     0.38080
C292        C  0.03143862  0.31813876  0.21314592     0.38070
C293        C  0.04153409  0.31060120  0.28308860     0.36490
C294        C  0.46299604  0.19854657  0.21315610     0.36490
N295        N  0.06068763  0.33237901  0.29513807    -0.38330
N296        N  0.45136994  0.17339121  0.19862661    -0.38330
N297        N  0.04481081  0.34297139  0.19856658    -0.37770
N298        N  0.43842567  0.17678801  0.29608091    -0.37780
C299        C  0.50389166  0.31734695  0.60744071    -0.04440
C300        C  0.03152726  0.32493080  0.58306622    -0.01560
C301        C  0.03202100  0.35855330  0.56469058     0.03430
C302        C  0.50718973  0.38636634  0.57276231    -0.04440
C303        C  0.48084044  0.37975853  0.59815464    -0.01550
C304        C  0.47829193  0.34495604  0.61453123     0.03430
C305        C  0.05944149  0.29817180  0.57656427     0.38080
C306        C  0.45509196  0.40830982  0.60621965     0.38070
C307        C  0.44715934  0.33698994  0.63615327     0.36490
C308        C  0.05755367  0.36397205  0.53682228     0.36490
N309        N  0.42126800  0.33208979  0.65245363    -0.38330
N310        N  0.07815488  0.36776200  0.51474504    -0.38330
N311        N  0.43461896  0.43103292  0.61275636    -0.37770
N312        N  0.08173348  0.27693154  0.57120201    -0.37780
C313        C  0.50311211  0.11154735  0.56578488    -0.04440
C314        C  0.46945198  0.12765757  0.57457800    -0.01560
C315        C  0.46856102  0.16039752  0.59368603     0.03430
C316        C  0.50096361  0.17826947  0.60317206    -0.04440
C317        C  0.03441781  0.16279371  0.59453770    -0.01550
C318        C  0.03553860  0.12925138  0.57656552     0.03430
C319        C  0.43537121  0.11211999  0.56293200     0.38080
C320        C  0.06781379  0.18169935  0.60399700     0.38070
C321        C  0.07028022  0.11283145  0.57016881     0.36490
C322        C  0.43417172  0.17619394  0.60331078     0.36490
N323        N  0.09838631  0.10024767  0.56566790    -0.38330
N324        N  0.40684478  0.18883782  0.61111703    -0.38330
N325        N  0.09442938  0.19688529  0.61138631    -0.37770
N326        N  0.40777796  0.10037351  0.55399677    -0.37780
C327        C  0.50450177  0.38187660  0.43882194    -0.04440
C328        C  0.47487651  0.35631843  0.44199405    -0.01560
C329        C  0.47286201  0.32525127  0.42097713     0.03430
C330        C  0.50139533  0.31845535  0.39805848    -0.04440
C331        C  0.03174167  0.34292380  0.39615984    -0.01550
C332        C  0.03210234  0.37582347  0.41483175     0.03430
C333        C  0.44630114  0.36193475  0.46685468     0.38080
C334        C  0.06372746  0.33299600  0.37700304     0.38070
C335        C  0.05854871  0.40482854  0.40644509     0.36490
C336        C  0.44163727  0.30003686  0.42323189     0.36490
N337        N  0.07894170  0.42800787  0.39786537    -0.38330
N338        N  0.41678462  0.27990090  0.42513263    -0.38330
N339        N  0.08977100  0.32464616  0.36272227    -0.37770
N340        N  0.42349085  0.36646416  0.48658763    -0.37780
C341        C  0.48962128  0.11941792  0.43716251    -0.04440
C342        C  0.46281232  0.12978901  0.41427528    -0.01560
C343        C  0.46746059  0.16234115  0.39472841     0.03430
C344        C  0.50076473  0.18223107  0.39462938    -0.04440
C345        C  0.02823812  0.17125033  0.41650975    -0.01550
C346        C  0.02213946  0.14088176  0.43867647     0.03430
C347        C  0.43109122  0.10655053  0.40901888     0.38080
C348        C  0.06237996  0.19201403  0.41696508     0.38070
C349        C  0.04899377  0.13301030  0.46380393     0.36490
C350        C  0.43669517  0.17722738  0.37733012     0.36490
N351        N  0.07107353  0.12790415  0.48350844    -0.38330
N352        N  0.41170464  0.18948106  0.36451149    -0.38330
N353        N  0.08960240  0.20856852  0.41735186    -0.37770
N354        N  0.40565978  0.08905932  0.40233652    -0.37780
C355        C  0.12253211  0.99127189  0.55675204    -0.04440
C356        C  0.14611500  0.02272377  0.55362022    -0.01560
C357        C  0.17406623  0.02869015  0.57702905     0.03430
C358        C  0.18138954  0.50131274  0.60154883    -0.04440
C359        C  0.16004514  0.46830721  0.60240084    -0.01550
C360        C  0.12942154  0.46455282  0.58191893     0.03430
C361        C  0.14353806  0.04784325  0.52510924     0.38160
C362        C  0.17158194  0.43648045  0.62169741     0.38070
C363        C  0.10446150  0.43381053  0.58845549     0.36490
C364        C  0.19588465  0.06268764  0.57529797     0.36490
N365        N  0.08531787  0.40921750  0.59601124    -0.38330
N366        N  0.21330119  0.08980317  0.57384421    -0.38330
N367        N  0.18120064  0.41040527  0.63582455    -0.37770
N368        N  0.14277631  0.06829940  0.50252601    -0.37780
C369        C  0.31504477  0.49544817  0.60616662    -0.04440
C370        C  0.31555434  0.47551109  0.57544268    -0.01560
C371        C  0.34556745  0.47865332  0.55325087     0.03430
C372        C  0.37706709  0.49828822  0.56284767    -0.04440
C373        C  0.37860925  0.01423921  0.59495956    -0.01550
C374        C  0.34751682  0.01388093  0.61621346     0.03430
C375        C  0.28585133  0.45030511  0.56696745     0.38080
C376        C  0.41268010  0.02991717  0.60660594     0.38070
C377        C  0.35009026  0.03217063  0.64835212     0.36490
C378        C  0.34389217  0.46153874  0.52034270     0.36490
N379        N  0.35400488  0.04637357  0.67405010    -0.38330
N380        N  0.34206825  0.44800505  0.49411691    -0.38330
N381        N  0.43986935  0.04200530  0.61621548    -0.37770
N382        N  0.26223990  0.43026055  0.56003412    -0.37780
C383        C  0.18305308  0.51386560  0.39641628    -0.04440
C384        C  0.16022319  0.04461379  0.39392303    -0.01560
C385        C  0.12651291  0.04470461  0.41145967     0.03430
C386        C  0.11549322  0.01456222  0.43268899    -0.04440
C387        C  0.13799286  0.48308610  0.43392745    -0.01550
C388        C  0.17131659  0.48284365  0.41590353     0.03430
C389        C  0.17182128  0.07664517  0.37378631     0.38080
C390        C  0.12755670  0.45005216  0.45305999     0.38070
C391        C  0.19346036  0.45009253  0.41697830     0.36490
C392        C  0.10223236  0.07490110  0.40565560     0.36490
N393        N  0.21111653  0.42404269  0.41786246    -0.38330
N394        N  0.08303421  0.09887197  0.39978823    -0.38330
N395        N  0.12090446  0.42207667  0.46658621    -0.37770
N396        N  0.18113941  0.10220450  0.35774569    -0.37780
C397        C  0.38749430  0.50523309  0.42929238    -0.04440
C398        C  0.37893210  0.47837878  0.40490252    -0.01560
C399        C  0.34498051  0.47831333  0.38900384     0.03430
C400        C  0.31974535  0.50637173  0.39605281    -0.04440
C401        C  0.32865392  0.03358198  0.42021264    -0.01550
C402        C  0.36155011  0.03198320  0.43771165     0.03430
C403        C  0.40475812  0.44990628  0.39701716     0.38080
C404        C  0.30428896  0.06369108  0.42698798     0.38070
C405        C  0.36825505  0.05781564  0.46480896     0.36490
C406        C  0.33539229  0.44802839  0.36681132     0.36490
N407        N  0.37289338  0.07899089  0.48609029    -0.38330
N408        N  0.32773208  0.42381420  0.34917626    -0.38330
N409        N  0.28486251  0.08766481  0.43249346    -0.37770
N410        N  0.42539938  0.42725665  0.39073986    -0.37780
O411        O  0.41577958  0.97380395  0.47267681    -0.79240
O412        O  0.07727051  0.54681745  0.47207202    -0.79260
O413        O  0.45747224  0.58598433  0.48130848    -0.79270
O414        O  0.02974294  0.92193985  0.48062142    -0.79210
O415        O  0.00588129  0.55915848  0.45729948    -0.79340
O416        O  0.47704291  0.93502868  0.45876400    -0.79260
O417        O  0.06032789  0.98953572  0.46018896    -0.79240
O418        O  0.44621628  0.52083359  0.45204002    -0.79280
C419        C  0.41871214  0.99953526  0.45159782     1.10450
C420        C  0.08286482  0.51733490  0.45566117     1.10330
C421        C  0.48402489  0.58698335  0.46000328     1.10470
C422        C  0.00467615  0.91540659  0.45969441     1.10350
O423        O  0.47845697  0.91455824  0.52810098    -0.79240
O424        O  0.02988684  0.57415302  0.52233159    -0.79320
O425        O  0.41736243  0.52512927  0.52096811    -0.79250
O426        O  0.08715813  0.95739806  0.51641158    -0.79230
O427        O  0.06714156  0.51182343  0.53207910    -0.79290
O428        O  0.42707017  0.96770316  0.54044133    -0.79250
O429        O  0.02422898  0.94578455  0.54945105    -0.79210
O430        O  0.47781237  0.55624938  0.54170081    -0.79280
Co431      Co  0.45293520  0.95078193  0.50013536     1.51530
Co432      Co  0.03326718  0.52909871  0.49341088     1.51690
Co433      Co  0.46510452  0.53709142  0.49702006     1.51570
Co434      Co  0.03869669  0.96954865  0.50584014     1.51470
O435        O  0.48993061  0.99303907  0.50597847    -1.41180
C436        C  0.50292952  0.91788980  0.54954044     1.10380
C437        C  0.50420651  0.57862166  0.54303087     1.10470
C438        C  0.40948425  0.99759191  0.54076729     1.10400
C439        C  0.09130048  0.48653583  0.53370668     1.10380
C440        C  0.50433935  0.71779051  0.37580332     0.04030
C441        C  0.50354103  0.75039819  0.39413214    -0.12120
C442        C  0.50073715  0.78439876  0.37776443     0.01530
C443        C  0.49750787  0.78588395  0.34266579    -0.10650
C444        C  0.50049561  0.75350735  0.32321833     0.04020
C445        C  0.50469338  0.71935651  0.34043212    -0.10070
H446        H  0.50419736  0.74924805  0.42138717     0.09610
H447        H  0.49273911  0.81241164  0.33074238     0.07140
H448        H  0.50758385  0.69382755  0.32666644     0.06990
C449        C  0.28452591  0.00779086  0.37769183     0.04030
C450        C  0.25121510  0.51022603  0.39517883    -0.12120
C451        C  0.21853599  0.01321518  0.37769140     0.01530
C452        C  0.21940997  0.01315372  0.34235221    -0.10650
C453        C  0.25220586  0.00895579  0.32442765     0.04020
C454        C  0.28452063  0.00683969  0.34238279    -0.10070
H455        H  0.25056319  0.50961796  0.42242786     0.09610
H456        H  0.19431002  0.01520203  0.32881684     0.07140
H457        H  0.30991427  0.00407125  0.32874428     0.06990
C458        C  0.27976257  0.99884216  0.62547046     0.04030
C459        C  0.24822842  0.50561326  0.60743259    -0.12120
C460        C  0.21406588  0.00441614  0.62310212     0.01530
C461        C  0.21159922  0.00178476  0.65844239    -0.10650
C462        C  0.24302156  0.99777902  0.67765675     0.04020
C463        C  0.27669860  0.99433785  0.66072536    -0.10070
H464        H  0.24988205  0.50962199  0.58041312     0.09610
H465        H  0.18529714  0.00276982  0.67081351     0.07140
H466        H  0.30032237  0.98819840  0.67528197     0.06990
C467        C  0.49988961  0.71295345  0.62278565     0.04030
C468        C  0.50022977  0.74751174  0.60632720    -0.12120
C469        C  0.50150793  0.78050113  0.62491929     0.01530
C470        C  0.50163072  0.77831799  0.66019850    -0.10650
C471        C  0.49999944  0.74374178  0.67684347     0.04020
C472        C  0.49906506  0.71113872  0.65793931    -0.10070
H473        H  0.50004137  0.74865769  0.57909140     0.09610
H474        H  0.50329779  0.80355346  0.67476987     0.07140
H475        H  0.49792354  0.68430736  0.67055353     0.06990
C476        C  0.24499477  0.95945827  0.12595773     0.04030
C477        C  0.25063898  0.96060082  0.16074919    -0.12120
C478        C  0.25313421  0.99476359  0.17756831     0.01530
C479        C  0.25349110  0.52775455  0.15821166    -0.10650
C480        C  0.24865179  0.52746202  0.12311969     0.04020
C481        C  0.24236156  0.99281089  0.10770598    -0.10070
H482        H  0.25307309  0.93480878  0.17466172     0.09610
H483        H  0.25761289  0.55392214  0.17073664     0.07140
H484        H  0.23635385  0.99139690  0.08120760     0.06990
O485        O  0.26160086  0.79717138  0.05003383    -0.79240
O486        O  0.23707324  0.69148077  0.04904448    -0.79260
O487        O  0.16183751  0.78062423  0.01532446    -0.79270
O488        O  0.30969229  0.73304574  0.03505253    -0.79210
O489        O  0.18494483  0.74095832  0.05020447    -0.79340
O490        O  0.33036576  0.78992044  0.02493866    -0.79260
O491        O  0.27556574  0.66905817  0.01419145    -0.79240
O492        O  0.22140935  0.82790940  0.02070282    -0.79280
C493        C  0.24099578  0.82455950  0.04679253     1.10450
C494        C  0.25709916  0.66530231  0.04132736     1.10330
C495        C  0.15945783  0.76152723  0.04237220     1.10470
C496        C  0.33363824  0.75902640  0.03986804     1.10350
O497        O  0.31041117  0.76450995  0.96374311    -0.79240
O498        O  0.16143765  0.71896115  0.98405580    -0.79320
O499        O  0.24258263  0.80717846  0.95112470    -0.79250
O500        O  0.25948122  0.70036391  0.94996104    -0.79230
O501        O  0.21731602  0.66993890  0.97996840    -0.79290
O502        O  0.28090423  0.82906880  0.98615366    -0.79250
O503        O  0.32816948  0.70743950  0.97309044    -0.79210
O504        O  0.18655788  0.75930327  0.94935561    -0.79280
Co505      Co  0.28369433  0.77777405  0.00835604     1.51530
Co506      Co  0.20249050  0.70762465  0.01544761     1.51690
Co507      Co  0.20533789  0.79145514  0.98451014     1.51570
Co508      Co  0.28212419  0.71990365  0.99108507     1.51470
O509        O  0.23686661  0.74924256  0.99991261    -1.41180
C510        C  0.33217885  0.73800766  0.95725849     1.10380
C511        C  0.16042366  0.73771948  0.95681832     1.10470
C512        C  0.26288872  0.83362356  0.95965446     1.10400
C513        C  0.23780015  0.67277168  0.95371831     1.10380
C514        C  0.02742823  0.75070053  0.12350653     0.04030
C515        C  0.02789232  0.75617042  0.15814957    -0.12120
C516        C  0.49529252  0.75982270  0.17613913     0.01530
C517        C  0.46253932  0.76156265  0.15858631    -0.10650
C518        C  0.46140950  0.75373245  0.12384583     0.04020
C519        C  0.49441681  0.74555545  0.10746635    -0.10070
H520        H  0.05351010  0.75731338  0.17105136     0.09610
H521        H  0.43837054  0.76877154  0.17243731     0.07140
H522        H  0.49508280  0.73676785  0.08155329     0.06990
C523        C  0.24970203  0.96975988  0.88015115     0.04030
C524        C  0.24917870  0.96788414  0.84481098    -0.12120
C525        C  0.24414248  0.00011689  0.82515420     0.01530
C526        C  0.23986061  0.53420279  0.84153879    -0.10650
C527        C  0.24212614  0.53657683  0.87659144     0.04020
C528        C  0.24660439  0.00422177  0.89582751    -0.10070
H529        H  0.25272154  0.94138799  0.83270926     0.09610
H530        H  0.23562614  0.55922986  0.82693370     0.07140
H531        H  0.24789297  0.00590946  0.92298280     0.06990
C532        C  0.02810169  0.74323738  0.87797240     0.04030
C533        C  0.02986707  0.74322224  0.84260018    -0.12120
C534        C  0.49818936  0.74109652  0.82349309     0.01530
C535        C  0.46459892  0.73883750  0.84056584    -0.10650
C536        C  0.46231819  0.74172518  0.87558268     0.04020
C537        C  0.49415215  0.74379420  0.89412014    -0.10070
H538        H  0.05605222  0.74479530  0.83003177     0.09610
H539        H  0.43987599  0.73589798  0.82650703     0.07140
H540        H  0.49244668  0.74550105  0.92129305     0.06990
C541        C  0.23993439  0.64078093  0.92999055    -0.04440
C542        C  0.20883805  0.62720468  0.91333571    -0.01560
C543        C  0.20954192  0.59345408  0.89551532     0.03430
C544        C  0.24166252  0.57338621  0.89322452    -0.04440
C545        C  0.27344492  0.58799026  0.90759333    -0.01550
C546        C  0.27253935  0.62093176  0.92650987     0.03430
C547        C  0.17598232  0.64791340  0.91359090     0.38080
C548        C  0.30708906  0.56831380  0.90379552     0.38070
C549        C  0.30433019  0.63060230  0.94579302     0.36490
C550        C  0.17684286  0.57873349  0.88029202     0.36490
N551        N  0.33042102  0.63508302  0.96107788    -0.38330
N552        N  0.15079506  0.56690710  0.86817319    -0.38330
N553        N  0.33391253  0.55269827  0.90079725    -0.37770
N554        N  0.14898910  0.66320940  0.91206937    -0.37780
C555        C  0.26033169  0.87015184  0.94131659    -0.04440
C556        C  0.29125521  0.89163720  0.93114453    -0.01560
C557        C  0.28772282  0.92421134  0.91135393     0.03430
C558        C  0.25337822  0.93555887  0.90111951    -0.04440
C559        C  0.22233034  0.91514050  0.91206005    -0.01550
C560        C  0.22564630  0.88308371  0.93245202     0.03430
C561        C  0.32710470  0.88056967  0.93989874     0.38080
C562        C  0.18681197  0.92740200  0.90244355     0.38070
C563        C  0.19296193  0.86450143  0.94550094     0.36490
C564        C  0.31961075  0.94615378  0.90127664     0.36490
N565        N  0.16675525  0.85004800  0.95597391    -0.38330
N566        N  0.34507124  0.96363875  0.89332918    -0.38330
N567        N  0.15854765  0.93726541  0.89469736    -0.37770
N568        N  0.35683838  0.87419522  0.94562725    -0.37780
C569        C  0.42692748  0.75489405  0.10379402    -0.04440
C570        C  0.39222949  0.74320608  0.11712814    -0.01560
C571        C  0.36094267  0.74571792  0.09693709     0.03430
C572        C  0.36481999  0.75330314  0.06222238    -0.04440
C573        C  0.39972916  0.75744789  0.04846169    -0.01550
C574        C  0.42879551  0.76542077  0.06924244     0.03430
C575        C  0.38800848  0.72739373  0.15062486     0.38080
C576        C  0.40783401  0.74196258  0.01590513     0.38070
C577        C  0.45933106  0.78596161  0.05422941     0.36490
C578        C  0.32514428  0.73933391  0.11154199     0.36490
N579        N  0.48336029  0.80242102  0.04175723    -0.38330
N580        N  0.29658105  0.73435647  0.12332283    -0.38330
N581        N  0.41591254  0.72710703  0.99133294    -0.37770
N582        N  0.38379610  0.71464660  0.17728370    -0.37780
C583        C  0.12513972  0.75902354  0.06270071    -0.04440
C584        C  0.11364260  0.72440254  0.07738151    -0.01560
C585        C  0.08182141  0.72175299  0.09735833     0.03430
C586        C  0.06131213  0.75339647  0.10310618    -0.04440
C587        C  0.07204921  0.78768834  0.08807431    -0.01550
C588        C  0.10334221  0.79036150  0.06727603     0.03430
C589        C  0.13337423  0.69079305  0.07082862     0.38080
C590        C  0.05098663  0.82041241  0.09443754     0.38070
C591        C  0.11357760  0.82573184  0.05165014     0.36490
C592        C  0.06974969  0.68627196  0.11164646     0.36490
N593        N  0.12177514  0.85399199  0.03931275    -0.38330
N594        N  0.06004274  0.65795709  0.12293527    -0.38330
N595        N  0.03418827  0.84646260  0.09967761    -0.37770
N596        N  0.14902072  0.66397584  0.06559568    -0.37780
C597        C  0.36169250  0.74333611  0.93179501    -0.04440
C598        C  0.36628903  0.71733473  0.90592606    -0.01560
C599        C  0.39957329  0.71564971  0.88838202     0.03430
C600        C  0.42652393  0.74353167  0.89304412    -0.04440
C601        C  0.41926605  0.77331522  0.91479531    -0.01550
C602        C  0.38779491  0.77234663  0.93523413     0.03430
C603        C  0.33581352  0.69515592  0.89460401     0.38080
C604        C  0.44450578  0.80473688  0.91675442     0.38070
C605        C  0.38519239  0.79866500  0.96240268     0.36490
C606        C  0.40641442  0.68426129  0.86679668     0.36490
N607        N  0.38553400  0.81912050  0.98464913    -0.38330
N608        N  0.41199620  0.65914669  0.84971962    -0.38330
N609        N  0.46452046  0.82984161  0.91835967    -0.37770
N610        N  0.31174011  0.67858230  0.88343426    -0.37780
C611        C  0.12687649  0.73793191  0.93570691    -0.04440
C612        C  0.12402457  0.76330891  0.90811110    -0.01560
C613        C  0.09100883  0.76688740  0.89127244     0.03430
C614        C  0.06177085  0.74195768  0.89823750    -0.04440
C615        C  0.06506098  0.71510487  0.92414402    -0.01550
C616        C  0.09640959  0.71439973  0.94389483     0.03430
C617        C  0.15480353  0.78570736  0.89587366     0.38080
C618        C  0.03654266  0.68720954  0.93010846     0.38070
C619        C  0.09708227  0.68815530  0.97184810     0.36490
C620        C  0.08685067  0.79737393  0.86753939     0.36490
N621        N  0.09733270  0.66711595  0.99402883    -0.38330
N622        N  0.08352911  0.82174209  0.84875069    -0.38330
N623        N  0.01384817  0.66500080  0.93496340    -0.37770
N624        N  0.17915359  0.80338855  0.88548810    -0.37780
C625        C  0.25618377  0.63049216  0.06293143    -0.04440
C626        C  0.24162414  0.63042099  0.09636622    -0.01560
C627        C  0.23599915  0.59659746  0.11449735     0.03430
C628        C  0.25113097  0.56318483  0.10262067    -0.04440
C629        C  0.26823559  0.56432030  0.07042297    -0.01550
C630        C  0.26578959  0.59590487  0.04955826     0.03430
C631        C  0.23060934  0.66460321  0.11213086     0.38080
C632        C  0.28804186  0.53316293  0.05740385     0.38070
C633        C  0.26393959  0.58906411  0.01400472     0.36490
C634        C  0.21241759  0.59630524  0.14408630     0.36490
N635        N  0.25979309  0.57916349  0.98678721    -0.38330
N636        N  0.19344577  0.59626354  0.16755672    -0.38330
N637        N  0.30385728  0.50898245  0.04581017    -0.37770
N638        N  0.22154347  0.69161870  0.12493256    -0.37780
C639        C  0.24469905  0.92330485  0.10789868    -0.04440
C640        C  0.27549366  0.91296797  0.08911940    -0.01560
C641        C  0.27451460  0.88053794  0.06944707     0.03430
C642        C  0.24378494  0.85622262  0.07068738    -0.04440
C643        C  0.21487838  0.86445904  0.09277563    -0.01550
C644        C  0.21426525  0.89887883  0.10955948     0.03430
C645        C  0.30859921  0.93535104  0.09061406     0.38080
C646        C  0.18793458  0.83608248  0.10135805     0.38070
C647        C  0.18171248  0.90967728  0.12731181     0.36490
C648        C  0.30528715  0.87298107  0.04775471     0.36490
N649        N  0.15524430  0.91835752  0.14068724    -0.38330
N650        N  0.33048248  0.86844460  0.03076764    -0.38330
N651        N  0.16732582  0.81327573  0.11029959    -0.37770
N652        N  0.33525394  0.95274603  0.09217753    -0.37780
C653        C  0.49951624  0.74194351  0.71423883    -0.04440
C654        C  0.47231330  0.75999931  0.73254088    -0.01560
C655        C  0.47458605  0.76330740  0.76759437     0.03430
C656        C  0.49963689  0.74194294  0.78572201    -0.04440
C657        C  0.02485499  0.72059960  0.76729950    -0.01550
C658        C  0.02634897  0.72282536  0.73181614     0.03430
C659        C  0.43979242  0.77168423  0.71604793     0.38080
C660        C  0.04846073  0.69517419  0.78429386     0.38070
C661        C  0.05563961  0.70555080  0.71348115     0.36490
C662        C  0.45159304  0.78975736  0.78439812     0.36490
N663        N  0.07906341  0.69194302  0.69882465    -0.38330
N664        N  0.43318311  0.81085589  0.79763422    -0.38330
N665        N  0.06737361  0.67485455  0.79771417    -0.37770
N666        N  0.41270051  0.77946876  0.70402453    -0.37780
C667        C  0.24158269  0.99864956  0.71551343    -0.04440
C668        C  0.21960574  0.97337334  0.73485054    -0.01560
C669        C  0.21981283  0.97433105  0.77049674     0.03430
C670        C  0.24378510  0.99878764  0.78737074    -0.04440
C671        C  0.26609153  0.52363611  0.76794733    -0.01550
C672        C  0.26304739  0.52522569  0.73262583     0.03430
C673        C  0.19622887  0.94649022  0.71856204     0.38080
C674        C  0.29298520  0.54714972  0.78409373     0.38070
C675        C  0.27913331  0.55662642  0.71428589     0.36490
C676        C  0.19432376  0.95094955  0.78975099     0.36490
N677        N  0.29083362  0.58248898  0.70002035    -0.38330
N678        N  0.17391216  0.93243190  0.80512847    -0.38330
N679        N  0.31454000  0.56571455  0.79701284    -0.37770
N680        N  0.17686723  0.92477607  0.70670770    -0.37780
C681        C  0.25458514  0.99649493  0.21543561    -0.04440
C682        C  0.27948131  0.52092220  0.23144015    -0.01560
C683        C  0.27698906  0.52684819  0.26647973     0.03430
C684        C  0.25278348  0.00501837  0.28687142    -0.04440
C685        C  0.23015559  0.97824119  0.27133669    -0.01550
C686        C  0.22962924  0.97543364  0.23592284     0.03430
C687        C  0.30865139  0.53922456  0.21224576     0.38080
C688        C  0.20792693  0.95263468  0.29176221     0.38070
C689        C  0.20228831  0.95149857  0.22105451     0.36490
C690        C  0.29859524  0.55645254  0.28126861     0.36490
N691        N  0.18021044  0.93211907  0.20995971    -0.38330
N692        N  0.31567512  0.58014297  0.29309848    -0.38330
N693        N  0.19032165  0.93213249  0.30802351    -0.37770
N694        N  0.33195058  0.55384060  0.19700589    -0.37780
C695        C  0.49874682  0.75551260  0.28524852    -0.04440
C696        C  0.47829422  0.72876072  0.26693336    -0.01560
C697        C  0.47844290  0.72968029  0.23144153     0.03430
C698        C  0.49542062  0.75944187  0.21359000    -0.04440
C699        C  0.01457566  0.78696003  0.23136640    -0.01550
C700        C  0.01760613  0.78424059  0.26669121     0.03430
C701        C  0.45619292  0.70026483  0.28383104     0.38080
C702        C  0.03143660  0.81813899  0.21314613     0.38070
C703        C  0.04153130  0.81060333  0.28308926     0.36490
C704        C  0.46299959  0.69854344  0.21315664     0.36490
N705        N  0.06068281  0.83238276  0.29513908    -0.38330
N706        N  0.45137355  0.67338814  0.19862701    -0.38330
N707        N  0.04480747  0.84297224  0.19856665    -0.37770
N708        N  0.43843791  0.67677898  0.29608256    -0.37780
C709        C  0.50387185  0.81734649  0.60743998    -0.04440
C710        C  0.03150554  0.82493645  0.58306511    -0.01560
C711        C  0.03199151  0.85855849  0.56468915     0.03430
C712        C  0.50715396  0.88636577  0.57276079    -0.04440
C713        C  0.48080562  0.87975182  0.59815282    -0.01550
C714        C  0.47826545  0.84494928  0.61453016     0.03430
C715        C  0.05942638  0.79818446  0.57656349     0.38080
C716        C  0.45505057  0.90829703  0.60621753     0.38070
C717        C  0.44713519  0.83697653  0.63615322     0.36490
C718        C  0.05752368  0.86398275  0.53682132     0.36490
N719        N  0.42124522  0.83207124  0.65245440    -0.38330
N720        N  0.07812481  0.86777592  0.51474442    -0.38330
N721        N  0.43457248  0.93101553  0.61275369    -0.37770
N722        N  0.08172350  0.77694970  0.57120153    -0.37780
C723        C  0.50313984  0.61154821  0.56578351    -0.04440
C724        C  0.46947695  0.62765340  0.57457583    -0.01560
C725        C  0.46858047  0.66039270  0.59368421     0.03430
C726        C  0.50098008  0.67826941  0.60317142    -0.04440
C727        C  0.03443705  0.66279954  0.59453704    -0.01550
C728        C  0.03556357  0.62925774  0.57656419     0.03430
C729        C  0.43539851  0.61211159  0.56292859     0.38080
C730        C  0.06782987  0.68171101  0.60399656     0.38070
C731        C  0.07030812  0.61284432  0.57016633     0.36490
C732        C  0.43418831  0.67618361  0.60330815     0.36490
N733        N  0.09841626  0.60026552  0.56566406    -0.38330
N734        N  0.40685910  0.68882312  0.61111365    -0.38330
N735        N  0.09444287  0.69690176  0.61138602    -0.37770
N736        N  0.40780662  0.60036224  0.55399281    -0.37780
C737        C  0.50446996  0.88187735  0.43882111    -0.04440
C738        C  0.47484972  0.85631299  0.44199143    -0.01560
C739        C  0.47284372  0.82524496  0.42097483     0.03430
C740        C  0.50138058  0.81845504  0.39805821    -0.04440
C741        C  0.03172163  0.84293071  0.39616082    -0.01550
C742        C  0.03207353  0.87583049  0.41483242     0.03430
C743        C  0.44627156  0.86192334  0.46685053     0.38080
C744        C  0.06371128  0.83301026  0.37700618     0.38070
C745        C  0.05851409  0.90484162  0.40644727     0.36490
C746        C  0.44162442  0.80002332  0.42322814     0.36490
N747        N  0.07890221  0.92802603  0.39786903    -0.38330
N748        N  0.41677610  0.77988157  0.42512769    -0.38330
N749        N  0.08975803  0.82466648  0.36272733    -0.37770
N750        N  0.42345928  0.86644819  0.48658251    -0.37780
C751        C  0.48964719  0.61941564  0.43716219    -0.04440
C752        C  0.46283624  0.62978282  0.41427552    -0.01560
C753        C  0.46747903  0.66233598  0.39472933     0.03430
C754        C  0.50078027  0.68223103  0.39462981    -0.04440
C755        C  0.02825632  0.67125398  0.41650895    -0.01550
C756        C  0.02216279  0.64088395  0.43867520     0.03430
C757        C  0.43111929  0.60653886  0.40901791     0.38080
C758        C  0.06239518  0.69202289  0.41696365     0.38070
C759        C  0.04901926  0.63301529  0.46380141     0.36490
C760        C  0.43671073  0.67721760  0.37733210     0.36490
N761        N  0.07110030  0.62791060  0.48350499    -0.38330
N762        N  0.41171787  0.68946749  0.36451434    -0.38330
N763        N  0.08961530  0.70858155  0.41734984    -0.37770
N764        N  0.40569114  0.58904362  0.40233358    -0.37780
C765        C  0.12257085  0.49127355  0.55674864    -0.04440
C766        C  0.14615169  0.52272730  0.55361843    -0.01560
C767        C  0.17410532  0.52869185  0.57702520     0.03430
C768        C  0.18134871  0.00131248  0.60155469    -0.04440
C769        C  0.16000206  0.96830838  0.60240857    -0.01550
C770        C  0.12937891  0.96455420  0.58192599     0.03430
C771        C  0.14357014  0.54785075  0.52511087     0.38160
C772        C  0.17153595  0.93648218  0.62170744     0.38070
C773        C  0.10441519  0.93381589  0.58846599     0.36490
C774        C  0.19592499  0.56268849  0.57529363     0.36490
N775        N  0.08526856  0.90922654  0.59602530    -0.38330
N776        N  0.21334282  0.58980315  0.57383928    -0.38330
N777        N  0.18115191  0.91040690  0.63583615    -0.37770
N778        N  0.14280470  0.56831004  0.50253020    -0.37780
C779        C  0.31500536  0.99545404  0.60616267    -0.04440
C780        C  0.31551365  0.97552260  0.57543552    -0.01560
C781        C  0.34552666  0.97866720  0.55324373     0.03430
C782        C  0.37702787  0.99829738  0.56284346    -0.04440
C783        C  0.37864790  0.51423439  0.59496205    -0.01550
C784        C  0.34755550  0.51387728  0.61621592     0.03430
C785        C  0.28580984  0.95031916  0.56695680     0.38080
C786        C  0.41271819  0.52991509  0.60660700     0.38070
C787        C  0.35012801  0.53217030  0.64835305     0.36490
C788        C  0.34384974  0.96155948  0.52033266     0.36490
N789        N  0.35404179  0.54637588  0.67404993    -0.38330
N790        N  0.34202394  0.94803137  0.49410459    -0.38330
N791        N  0.43990701  0.54200527  0.61621561    -0.37770
N792        N  0.26219772  0.93027684  0.56002046    -0.37780
C793        C  0.18301745  0.01386517  0.39641460    -0.04440
C794        C  0.16026109  0.54461614  0.39392637    -0.01560
C795        C  0.12655053  0.54470797  0.41146238     0.03430
C796        C  0.11552819  0.51456430  0.43268916    -0.04440
C797        C  0.13795998  0.98308578  0.43392888    -0.01550
C798        C  0.17128323  0.98284399  0.41590407     0.03430
C799        C  0.17186183  0.57664829  0.37379187     0.38080
C800        C  0.12752611  0.95005273  0.45306359     0.38070
C801        C  0.19342878  0.95009422  0.41698016     0.36490
C802        C  0.10227264  0.57490733  0.40566051     0.36490
N803        N  0.21108631  0.92404542  0.41786536    -0.38330
N804        N  0.08307677  0.59888078  0.39979519    -0.38330
N805        N  0.12087571  0.92207781  0.46659142    -0.37770
N806        N  0.18118212  0.60220819  0.35775301    -0.37780
C807        C  0.38746037  0.00523837  0.42929008    -0.04440
C808        C  0.37889719  0.97838298  0.40490148    -0.01560
C809        C  0.34494506  0.97831688  0.38900392     0.03430
C810        C  0.31971034  0.00637575  0.39605253    -0.04440
C811        C  0.32868793  0.53357660  0.42021454    -0.01550
C812        C  0.36158331  0.53197684  0.43771467     0.03430
C813        C  0.40472279  0.94991000  0.39701634     0.38080
C814        C  0.30432307  0.56368574  0.42699017     0.38070
C815        C  0.36828743  0.55780836  0.46481283     0.36490
C816        C  0.33535580  0.94803086  0.36681292     0.36490
N817        N  0.37292488  0.57898296  0.48609480    -0.38330
N818        N  0.32769471  0.92381587  0.34917906    -0.38330
N819        N  0.28489678  0.58765952  0.43249596    -0.37770
N820        N  0.42536372  0.92726001  0.39073918    -0.37780
O821        O  0.91581528  0.47379991  0.47267882    -0.79240
O822        O  0.57723671  0.04681530  0.47207269    -0.79260
O823        O  0.95744156  0.08598823  0.48130709    -0.79270
O824        O  0.52978094  0.42193948  0.48061982    -0.79210
O825        O  0.50584861  0.05915841  0.45729864    -0.79340
O826        O  0.97708274  0.43503282  0.45876207    -0.79260
O827        O  0.56036269  0.48953761  0.46018809    -0.79240
O828        O  0.94618190  0.02083767  0.45203895    -0.79280
C829        C  0.91874676  0.49953081  0.45159951     1.10450
C830        C  0.58283039  0.01733277  0.45566173     1.10330
C831        C  0.98399485  0.08698537  0.46000257     1.10470
C832        C  0.50471374  0.41540778  0.45969278     1.10350
O833        O  0.97849814  0.41455583  0.52809831    -0.79240
O834        O  0.52985361  0.07415186  0.52233107    -0.79320
O835        O  0.91732637  0.02513572  0.52096523    -0.79250
O836        O  0.58719597  0.45739980  0.51640914    -0.79230
O837        O  0.56710459  0.01182236  0.53208013    -0.79290
O838        O  0.92710899  0.46769638  0.54044210    -0.79250
O839        O  0.52426806  0.44578353  0.54945039    -0.79210
O840        O  0.97777787  0.05625222  0.54170029    -0.79280
Co841      Co  0.95297401  0.45077960  0.50013481     1.51530
Co842      Co  0.53323235  0.02909785  0.49341055     1.51690
Co843      Co  0.96507004  0.03709461  0.49701910     1.51570
Co844      Co  0.53873394  0.46954864  0.50583928     1.51470
O845        O  0.98996728  0.49303782  0.50597961    -1.41180
C846        C  0.00296865  0.41788870  0.54953957     1.10380
C847        C  0.00417414  0.07862188  0.54303085     1.10470
C848        C  0.90952237  0.49758463  0.54076996     1.10400
C849        C  0.59126269  0.98653419  0.53370897     1.10380
C850        C  0.00432970  0.21779004  0.37580286     0.04030
C851        C  0.00353891  0.25039782  0.39413185    -0.12120
C852        C  0.00074247  0.28439935  0.37776442     0.01530
C853        C  0.99751192  0.28588563  0.34266595    -0.10650
C854        C  0.00049286  0.25350849  0.32321807     0.04020
C855        C  0.00468420  0.21935642  0.34043172    -0.10070
H856        H  0.00419582  0.24924727  0.42138685     0.09610
H857        H  0.99274766  0.31241461  0.33074314     0.07140
H858        H  0.00757037  0.19382690  0.32666607     0.06990
C859        C  0.78456086  0.50778725  0.37769199     0.04030
C860        C  0.75117982  0.01022912  0.39517807    -0.12120
C861        C  0.71857123  0.51321426  0.37769282     0.01530
C862        C  0.71944433  0.51315327  0.34235379    -0.10650
C863        C  0.75223933  0.50895340  0.32442843     0.04020
C864        C  0.78455471  0.50683630  0.34238275    -0.10070
H865        H  0.75052757  0.00962180  0.42242710     0.09610
H866        H  0.69434409  0.51520298  0.32881907     0.07140
H867        H  0.80994783  0.50406721  0.32874357     0.06990
C868        C  0.77980103  0.49884050  0.62547156     0.04030
C869        C  0.74818800  0.00561545  0.60743464    -0.12120
C870        C  0.71410520  0.50441743  0.62309772     0.01530
C871        C  0.71163534  0.50178881  0.65843783    -0.10650
C872        C  0.74305550  0.49778258  0.67765502     0.04020
C873        C  0.77673405  0.49433960  0.66072663    -0.10070
H874        H  0.74983933  0.00962765  0.58041553     0.09610
H875        H  0.68533215  0.50277561  0.67080665     0.07140
H876        H  0.80035643  0.48820058  0.67528538     0.06990
C877        C  0.99987981  0.21295403  0.62278598     0.04030
C878        C  0.00023099  0.24751260  0.60632739    -0.12120
C879        C  0.00151831  0.28050171  0.62491956     0.01530
C880        C  0.00163969  0.27831833  0.66019876    -0.10650
C881        C  0.99999822  0.24374238  0.67684363     0.04020
C882        C  0.99905456  0.21113943  0.65793965    -0.10070
H883        H  0.00004398  0.24865880  0.57909158     0.09610
H884        H  0.00331355  0.30355337  0.67477024     0.07140
H885        H  0.99790605  0.18430823  0.67055407     0.06990
C886        C  0.74499970  0.45945795  0.12595963     0.04030
C887        C  0.75064895  0.46060046  0.16075027    -0.12120
C888        C  0.75314704  0.49476321  0.17756916     0.01530
C889        C  0.75348088  0.02775485  0.15821058    -0.10650
C890        C  0.74864630  0.02746239  0.12311801     0.04020
C891        C  0.74236440  0.49281060  0.10770833    -0.10070
H892        H  0.75308488  0.43480840  0.17466239     0.09610
H893        H  0.75760081  0.05392242  0.17073598     0.07140
H894        H  0.73635350  0.49139674  0.08121059     0.06990
O895        O  0.76160056  0.29717197  0.05003368    -0.79240
O896        O  0.73707336  0.19148211  0.04904396    -0.79260
O897        O  0.66183708  0.28062522  0.01532476    -0.79270
O898        O  0.80969191  0.23304679  0.03505202    -0.79210
O899        O  0.68494459  0.24095912  0.05020447    -0.79340
O900        O  0.83036532  0.28992149  0.02493806    -0.79260
O901        O  0.77556553  0.16905913  0.01419092    -0.79240
O902        O  0.72140907  0.32791043  0.02070310    -0.79280
C903        C  0.74099572  0.32456031  0.04679265     1.10450
C904        C  0.75709891  0.16530339  0.04132681     1.10330
C905        C  0.65945757  0.26152812  0.04237243     1.10470
C906        C  0.83363785  0.25902747  0.03986743     1.10350
O907        O  0.81041055  0.26451113  0.96374261    -0.79240
O908        O  0.66143711  0.21896199  0.98405580    -0.79320
O909        O  0.74258177  0.30717947  0.95112472    -0.79250
O910        O  0.75948084  0.20036483  0.94996061    -0.79230
O911        O  0.71731565  0.16993996  0.97996810    -0.79290
O912        O  0.78090352  0.32906976  0.98615350    -0.79250
O913        O  0.82816911  0.20744076  0.97308991    -0.79210
O914        O  0.68655679  0.25930469  0.94935575    -0.79280
Co915      Co  0.78369384  0.27777496  0.00835567     1.51530
Co916      Co  0.70249020  0.20762564  0.01544742     1.51690
Co917      Co  0.70533723  0.29145626  0.98451031     1.51570
Co918      Co  0.78212379  0.21990468  0.99108461     1.51470
O919        O  0.73686610  0.24924354  0.99991225    -1.41180
C920        C  0.83217836  0.23800894  0.95725798     1.10380
C921        C  0.66042291  0.23772037  0.95681835     1.10470
C922        C  0.76288787  0.33362455  0.95965440     1.10400
C923        C  0.73779977  0.17277261  0.95371800     1.10380
C924        C  0.52742770  0.25070146  0.12350630     0.04030
C925        C  0.52789167  0.25617148  0.15814931    -0.12120
C926        C  0.99529180  0.25982429  0.17613860     0.01530
C927        C  0.96253876  0.26156459  0.15858559    -0.10650
C928        C  0.96140899  0.25373394  0.12384523     0.04020
C929        C  0.99441631  0.24555654  0.10746593    -0.10070
H930        H  0.55350939  0.25731410  0.17105121     0.09610
H931        H  0.93837000  0.26877397  0.17243641     0.07140
H932        H  0.99508237  0.23676878  0.08155291     0.06990
C933        C  0.74970369  0.46976028  0.88015007     0.04030
C934        C  0.74918532  0.46788511  0.84480980    -0.12120
C935        C  0.74415206  0.50011820  0.82515278     0.01530
C936        C  0.73985342  0.03420171  0.84154042    -0.10650
C937        C  0.74212420  0.03657645  0.87659267     0.04020
C938        C  0.74660357  0.50422186  0.89582648    -0.10070
H939        H  0.75273019  0.44138924  0.83270813     0.09610
H940        H  0.73561617  0.05922846  0.82693573     0.07140
H941        H  0.74788885  0.50590918  0.92298197     0.06990
C942        C  0.52810117  0.24323661  0.87797182     0.04030
C943        C  0.52986643  0.24322096  0.84259960    -0.12120
C944        C  0.99818861  0.24109651  0.82349274     0.01530
C945        C  0.96459818  0.23883868  0.84056543    -0.10650
C946        C  0.96231763  0.24172592  0.87558228     0.04020
C947        C  0.99415168  0.24379418  0.89411971    -0.10070
H948        H  0.55605154  0.24479281  0.83003099     0.09610
H949        H  0.93987516  0.23590042  0.82650652     0.07140
H950        H  0.99244628  0.24550113  0.92129262     0.06990
C951        C  0.73993386  0.14078173  0.92999035    -0.04440
C952        C  0.70883730  0.12720531  0.91333600    -0.01560
C953        C  0.70954073  0.09345433  0.89551622     0.03430
C954        C  0.74166117  0.07338612  0.89322545    -0.04440
C955        C  0.77344385  0.08799037  0.90759367    -0.01550
C956        C  0.77253872  0.12093240  0.92650956     0.03430
C957        C  0.67598174  0.14791430  0.91359100     0.38080
C958        C  0.80708784  0.06831362  0.90379597     0.38070
C959        C  0.80432991  0.13060337  0.94579206     0.36490
C960        C  0.67684126  0.07873363  0.88029370     0.36490
N961        N  0.83042102  0.13508445  0.96107646    -0.38330
N962        N  0.65079317  0.06690716  0.86817546    -0.38330
N963        N  0.83391119  0.05269782  0.90079789    -0.37770
N964        N  0.64898861  0.16321043  0.91206924    -0.37780
C965        C  0.76033117  0.37015267  0.94131623    -0.04440
C966        C  0.79125486  0.39163897  0.93114634    -0.01560
C967        C  0.78772313  0.42421270  0.91135512     0.03430
C968        C  0.75337902  0.43555923  0.90111842    -0.04440
C969        C  0.72233086  0.41514006  0.91205689    -0.01550
C970        C  0.72564610  0.38308355  0.93244934     0.03430
C971        C  0.82710388  0.38057337  0.93990417     0.38080
C972        C  0.68681295  0.42740030  0.90243761     0.38070
C973        C  0.69296124  0.36450094  0.94549678     0.36490
C974        C  0.81961126  0.44615576  0.90127955     0.36490
N975        N  0.66675420  0.35004731  0.95596872    -0.38330
N976        N  0.84507192  0.46364115  0.89333335    -0.38330
N977        N  0.65854900  0.43726264  0.89468913    -0.37770
N978        N  0.85683717  0.37420073  0.94563604    -0.37780
C979        C  0.92692700  0.25489549  0.10379340    -0.04440
C980        C  0.89222892  0.24320794  0.11712764    -0.01560
C981        C  0.86094215  0.24571958  0.09693652     0.03430
C982        C  0.86481957  0.25330429  0.06222175    -0.04440
C983        C  0.89972876  0.25744874  0.04846103    -0.01550
C984        C  0.92879514  0.26542174  0.06924172     0.03430
C985        C  0.88800762  0.22739634  0.15062462     0.38080
C986        C  0.90783352  0.24196320  0.01590455     0.38070
C987        C  0.95933077  0.28596233  0.05422857     0.36490
C988        C  0.82514370  0.23933579  0.11154139     0.36490
N989        N  0.98336010  0.30242156  0.04175637    -0.38330
N990        N  0.79658041  0.23435847  0.12332214    -0.38330
N991        N  0.91591194  0.22710753  0.99133238    -0.37770
N992        N  0.88379476  0.21464987  0.17728365    -0.37780
C993        C  0.62513961  0.25902449  0.06270113    -0.04440
C994        C  0.61364232  0.22440344  0.07738171    -0.01560
C995        C  0.58182099  0.22175387  0.09735834     0.03430
C996        C  0.56131171  0.25339737  0.10310614    -0.04440
C997        C  0.57204907  0.28768933  0.08807461    -0.01550
C998        C  0.60334227  0.29036255  0.06727662     0.03430
C999        C  0.63337391  0.19079393  0.07082879     0.38080
C1000       C  0.55098652  0.32041342  0.09443785     0.38070
C1001       C  0.61357798  0.32573300  0.05165111     0.36490
C1002       C  0.56974911  0.18627281  0.11164629     0.36490
N1003       N  0.62177578  0.35399323  0.03931401    -0.38330
N1004       N  0.56004205  0.15795792  0.12293498    -0.38330
N1005       N  0.53418816  0.34646361  0.09967793    -0.37770
N1006       N  0.64902034  0.16397670  0.06559580    -0.37780
C1007       C  0.86169194  0.24333746  0.93179445    -0.04440
C1008       C  0.86628832  0.21733613  0.90592544    -0.01560
C1009       C  0.89957258  0.21565096  0.88838144     0.03430
C1010       C  0.92652342  0.24353268  0.89304370    -0.04440
C1011       C  0.91926573  0.27331621  0.91479493    -0.01550
C1012       C  0.88779454  0.27234781  0.93523366     0.03430
C1013       C  0.83581273  0.19515740  0.89460345     0.38080
C1014       C  0.94450579  0.30473759  0.91675421     0.38070
C1015       C  0.88519233  0.29866593  0.96240240     0.36490
C1016       C  0.90641354  0.18426259  0.86679597     0.36490
N1017       N  0.88553452  0.31912094  0.98464921    -0.38330
N1018       N  0.91199520  0.15914804  0.84971883    -0.38330
N1019       N  0.96452073  0.32984208  0.91835959    -0.37770
N1020       N  0.81173922  0.17858381  0.88343383    -0.37780
C1021       C  0.62687591  0.23793207  0.93570665    -0.04440
C1022       C  0.62402431  0.26330801  0.90811003    -0.01560
C1023       C  0.59100863  0.26688628  0.89127124     0.03430
C1024       C  0.56177042  0.24195701  0.89823686    -0.04440
C1025       C  0.56506037  0.21510486  0.92414397    -0.01550
C1026       C  0.59640891  0.21440016  0.94389494     0.03430
C1027       C  0.65480365  0.28570533  0.89587169     0.38080
C1028       C  0.53654194  0.18720977  0.93010888     0.38070
C1029       C  0.59708145  0.18815636  0.97184870     0.36490
C1030       C  0.58685077  0.29737221  0.86753749     0.36490
N1031       N  0.59733177  0.16711748  0.99402980    -0.38330
N1032       N  0.58352947  0.32173991  0.84874824    -0.38330
N1033       N  0.51384737  0.16500120  0.93496416    -0.37770
N1034       N  0.67915403  0.30338556  0.88548543    -0.37780
C1035       C  0.75618281  0.13049315  0.06293074    -0.04440
C1036       C  0.74162151  0.13042181  0.09636491    -0.01560
C1037       C  0.73599453  0.09659808  0.11449523     0.03430
C1038       C  0.75112720  0.06318545  0.10261935    -0.04440
C1039       C  0.76823445  0.06432136  0.07042283    -0.01550
C1040       C  0.76578942  0.09590591  0.04955797     0.03430
C1041       C  0.73060712  0.16460409  0.11212973     0.38080
C1042       C  0.78804240  0.03316453  0.05740493     0.38070
C1043       C  0.76394082  0.08906490  0.01400444     0.36490
C1044       C  0.71240996  0.09630580  0.14408213     0.36490
N1045       N  0.75979536  0.07916377  0.98678695    -0.38330
N1046       N  0.69343579  0.09626410  0.16755091    -0.38330
N1047       N  0.80385928  0.00898455  0.04581214    -0.37770
N1048       N  0.72154172  0.19161965  0.12493160    -0.37780
C1049       C  0.74470254  0.42330467  0.10790034    -0.04440
C1050       C  0.77549602  0.41296797  0.08911941    -0.01560
C1051       C  0.77451570  0.38053834  0.06944663     0.03430
C1052       C  0.74378575  0.35622341  0.07068755    -0.04440
C1053       C  0.71488030  0.36445960  0.09277722    -0.01550
C1054       C  0.71426869  0.39887876  0.10956237     0.03430
C1055       C  0.80860182  0.43535083  0.09061294     0.38080
C1056       C  0.68793593  0.33608346  0.10135929     0.38070
C1057       C  0.68171774  0.40967637  0.12731812     0.36490
C1058       C  0.80528746  0.37298149  0.04775330     0.36490
N1059       N  0.65525109  0.41835590  0.14069668    -0.38330
N1060       N  0.83048236  0.36844523  0.03076563    -0.38330
N1061       N  0.66732661  0.31327699  0.11030031    -0.37770
N1062       N  0.83525668  0.45274574  0.09217550    -0.37780
C1063       C  0.99951481  0.24194416  0.71423881    -0.04440
C1064       C  0.97231455  0.26000405  0.73254082    -0.01560
C1065       C  0.97458723  0.26331064  0.76759447     0.03430
C1066       C  0.99963597  0.24194319  0.78572177    -0.04440
C1067       C  0.52485173  0.22059716  0.76729910    -0.01550
C1068       C  0.52634516  0.22282221  0.73181575     0.03430
C1069       C  0.93979658  0.27169615  0.71604721     0.38080
C1070       C  0.54845570  0.19517006  0.78429356     0.38070
C1071       C  0.55563274  0.20554305  0.71348027     0.36490
C1072       C  0.95159635  0.28976197  0.78439897     0.36490
N1073       N  0.57905413  0.19193164  0.69882333    -0.38330
N1074       N  0.93318808  0.31086154  0.79763570    -0.38330
N1075       N  0.56736723  0.17484915  0.79771398    -0.37770
N1076       N  0.91270690  0.27948697  0.70402298    -0.37780
C1077       C  0.74161183  0.49865212  0.71551159    -0.04440
C1078       C  0.71962992  0.47337715  0.73484535    -0.01560
C1079       C  0.71983082  0.47433447  0.77049160     0.03430
C1080       C  0.74380133  0.49878949  0.78736930    -0.04440
C1081       C  0.76607014  0.02363571  0.76794516    -0.01550
C1082       C  0.76301913  0.02522509  0.73262430     0.03430
C1083       C  0.69625414  0.44649580  0.71855318     0.38080
C1084       C  0.79296590  0.04715085  0.78408695     0.38070
C1085       C  0.77909897  0.05662721  0.71428186     0.36490
C1086       C  0.69433721  0.45095432  0.78974202     0.36490
N1087       N  0.79079441  0.08249055  0.70001419    -0.38330
N1088       N  0.67392198  0.43243777  0.80511644    -0.38330
N1089       N  0.81452243  0.06571693  0.79700229    -0.37770
N1090       N  0.67689317  0.42478340  0.70669544    -0.37780
C1091       C  0.75460387  0.49649404  0.21543615    -0.04440
C1092       C  0.77945887  0.02092479  0.23144234    -0.01560
C1093       C  0.77696024  0.02685245  0.26648127     0.03430
C1094       C  0.75281416  0.50501485  0.28687230    -0.04440
C1095       C  0.73018279  0.47823904  0.27133980    -0.01550
C1096       C  0.72965041  0.47543304  0.23592607     0.03430
C1097       C  0.80863215  0.03922665  0.21225177     0.38080
C1098       C  0.70795641  0.45263253  0.29176747     0.38070
C1099       C  0.70230532  0.45150064  0.22106063     0.36490
C1100       C  0.79856206  0.05645900  0.28127196     0.36490
N1101       N  0.68022416  0.43212359  0.20996787    -0.38330
N1102       N  0.81563840  0.08015115  0.29310329    -0.38330
N1103       N  0.69035298  0.43213039  0.30803051    -0.37770
N1104       N  0.83193394  0.05384224  0.19701501    -0.37780
C1105       C  0.99874420  0.25551443  0.28524815    -0.04440
C1106       C  0.97828940  0.22876445  0.26693272    -0.01560
C1107       C  0.97843963  0.22968326  0.23144091     0.03430
C1108       C  0.99541951  0.25944359  0.21358947    -0.04440
C1109       C  0.51457608  0.28696064  0.23136605    -0.01550
C1110       C  0.51760642  0.28424074  0.26669084     0.03430
C1111       C  0.95618394  0.20027151  0.28382987     0.38080
C1112       C  0.53143874  0.31813878  0.21314591     0.38070
C1113       C  0.54153429  0.31060118  0.28308857     0.36490
C1114       C  0.96299601  0.19854652  0.21315608     0.36490
N1115       N  0.56068787  0.33237896  0.29513802    -0.38330
N1116       N  0.95136993  0.17339114  0.19862658    -0.38330
N1117       N  0.54481093  0.34297140  0.19856656    -0.37770
N1118       N  0.93842554  0.17678797  0.29608087    -0.37780
C1119       C  0.00389159  0.31734695  0.60744071    -0.04440
C1120       C  0.53152728  0.32493078  0.58306618    -0.01560
C1121       C  0.53202102  0.35855327  0.56469053     0.03430
C1122       C  0.00718966  0.38636635  0.57276231    -0.04440
C1123       C  0.98084032  0.37975849  0.59815459    -0.01550
C1124       C  0.97829182  0.34495600  0.61453118     0.03430
C1125       C  0.55944147  0.29817175  0.57656418     0.38080
C1126       C  0.95509179  0.40830975  0.60621955     0.38070
C1127       C  0.94715918  0.33698985  0.63615314     0.36490
C1128       C  0.55755364  0.36397200  0.53682219     0.36490
N1129       N  0.92126780  0.33208964  0.65245343    -0.38330
N1130       N  0.57815481  0.36776193  0.51474492    -0.38330
N1131       N  0.93461875  0.43103282  0.61275623    -0.37770
N1132       N  0.58173344  0.27693147  0.57120188    -0.37780
C1133       C  0.00311211  0.11154735  0.56578489    -0.04440
C1134       C  0.96945197  0.12765757  0.57457801    -0.01560
C1135       C  0.96856101  0.16039752  0.59368605     0.03430
C1136       C  0.00096360  0.17826947  0.60317208    -0.04440
C1137       C  0.53441782  0.16279371  0.59453768    -0.01550
C1138       C  0.53553861  0.12925137  0.57656551     0.03430
C1139       C  0.93537121  0.11211999  0.56293200     0.38080
C1140       C  0.56781380  0.18169935  0.60399698     0.38070
C1141       C  0.57028022  0.11283143  0.57016881     0.36490
C1142       C  0.93417171  0.17619394  0.60331079     0.36490
N1143       N  0.59838630  0.10024764  0.56566791    -0.38330
N1144       N  0.90684476  0.18883781  0.61111704    -0.38330
N1145       N  0.59442939  0.19688529  0.61138628    -0.37770
N1146       N  0.90777796  0.10037351  0.55399677    -0.37780
C1147       C  0.00450173  0.38187656  0.43882196    -0.04440
C1148       C  0.97487643  0.35631843  0.44199407    -0.01560
C1149       C  0.97286189  0.32525127  0.42097715     0.03430
C1150       C  0.00139519  0.31845531  0.39805850    -0.04440
C1151       C  0.53174177  0.34292389  0.39615982    -0.01550
C1152       C  0.53210238  0.37582356  0.41483172     0.03430
C1153       C  0.94630107  0.36193480  0.46685469     0.38080
C1154       C  0.56372758  0.33299614  0.37700302     0.38070
C1155       C  0.55854869  0.40482869  0.40644504     0.36490
C1156       C  0.94163711  0.30003691  0.42323191     0.36490
N1157       N  0.57894163  0.42800806  0.39786532    -0.38330
N1158       N  0.91678443  0.27990099  0.42513266    -0.38330
N1159       N  0.58977114  0.32464634  0.36272226    -0.37770
N1160       N  0.92349078  0.36646425  0.48658764    -0.37780
C1161       C  0.98962123  0.11941786  0.43716250    -0.04440
C1162       C  0.96281226  0.12978891  0.41427526    -0.01560
C1163       C  0.96746049  0.16234105  0.39472840     0.03430
C1164       C  0.00076460  0.18223102  0.39462937    -0.04440
C1165       C  0.52823823  0.17125035  0.41650976    -0.01550
C1166       C  0.52213953  0.14088178  0.43867649     0.03430
C1167       C  0.93109121  0.10655037  0.40901884     0.38080
C1168       C  0.56238009  0.19201401  0.41696510     0.38070
C1169       C  0.54899383  0.13301030  0.46380396     0.36490
C1170       C  0.93669506  0.17722724  0.37733010     0.36490
N1171       N  0.57107357  0.12790414  0.48350847    -0.38330
N1172       N  0.91170450  0.18948087  0.36451146    -0.38330
N1173       N  0.58960255  0.20856847  0.41735188    -0.37770
N1174       N  0.90565980  0.08905912  0.40233646    -0.37780
C1175       C  0.62253211  0.99127191  0.55675200    -0.04440
C1176       C  0.64611500  0.02272379  0.55362020    -0.01560
C1177       C  0.67406623  0.02869017  0.57702903     0.03430
C1178       C  0.68138956  0.50131275  0.60154881    -0.04440
C1179       C  0.66004520  0.46830720  0.60240079    -0.01550
C1180       C  0.62942161  0.46455280  0.58191888     0.03430
C1181       C  0.64353807  0.04784328  0.52510922     0.38160
C1182       C  0.67158202  0.43648044  0.62169736     0.38070
C1183       C  0.60446161  0.43381046  0.58845540     0.36490
C1184       C  0.69588465  0.06268766  0.57529796     0.36490
N1185       N  0.58531802  0.40921737  0.59601111    -0.38330
N1186       N  0.71330117  0.08980320  0.57384422    -0.38330
N1187       N  0.68120074  0.41040527  0.63582449    -0.37770
N1188       N  0.64277631  0.06829944  0.50252600    -0.37780
C1189       C  0.81504479  0.49544822  0.60616658    -0.04440
C1190       C  0.81555436  0.47551112  0.57544265    -0.01560
C1191       C  0.84556746  0.47865334  0.55325083     0.03430
C1192       C  0.87706709  0.49828826  0.56284761    -0.04440
C1193       C  0.87860923  0.01423923  0.59495961    -0.01550
C1194       C  0.84751680  0.01388096  0.61621349     0.03430
C1195       C  0.78585135  0.45030513  0.56696743     0.38080
C1196       C  0.91268008  0.02991721  0.60660599     0.38070
C1197       C  0.85009022  0.03217071  0.64835213     0.36490
C1198       C  0.84389218  0.46153874  0.52034266     0.36490
N1199       N  0.85400480  0.04637369  0.67405010    -0.38330
N1200       N  0.84206826  0.44800504  0.49411688    -0.38330
N1201       N  0.93986932  0.04200535  0.61621552    -0.37770
N1202       N  0.76223992  0.43026055  0.56003412    -0.37780
C1203       C  0.68305310  0.51386565  0.39641630    -0.04440
C1204       C  0.66022322  0.04461383  0.39392301    -0.01560
C1205       C  0.62651294  0.04470465  0.41145965     0.03430
C1206       C  0.61549323  0.01456226  0.43268896    -0.04440
C1207       C  0.63799286  0.48308614  0.43392744    -0.01550
C1208       C  0.67131659  0.48284369  0.41590352     0.03430
C1209       C  0.67182132  0.07664523  0.37378631     0.38080
C1210       C  0.62755669  0.45005218  0.45305995     0.38070
C1211       C  0.69346036  0.45009256  0.41697827     0.36490
C1212       C  0.60223239  0.07490116  0.40565558     0.36490
N1213       N  0.71111652  0.42404271  0.41786241    -0.38330
N1214       N  0.58303426  0.09887204  0.39978821    -0.38330
N1215       N  0.62090444  0.42207667  0.46658615    -0.37770
N1216       N  0.68113947  0.10220455  0.35774570    -0.37780
C1217       C  0.88749432  0.50523312  0.42929233    -0.04440
C1218       C  0.87893214  0.47837885  0.40490243    -0.01560
C1219       C  0.84498055  0.47831341  0.38900374     0.03430
C1220       C  0.81974537  0.50637178  0.39605274    -0.04440
C1221       C  0.82865392  0.03358196  0.42021269    -0.01550
C1222       C  0.86155010  0.03198316  0.43771172     0.03430
C1223       C  0.90475818  0.44990639  0.39701703     0.38080
C1224       C  0.80428896  0.06369107  0.42698803     0.38070
C1225       C  0.86825505  0.05781561  0.46480902     0.36490
C1226       C  0.83539236  0.44802849  0.36681119     0.36490
N1227       N  0.87289338  0.07899086  0.48609034    -0.38330
N1228       N  0.82773217  0.42381432  0.34917609    -0.38330
N1229       N  0.78486252  0.08766480  0.43249352    -0.37770
N1230       N  0.92539947  0.42725678  0.39073971    -0.37780
O1231       O  0.91577956  0.97380391  0.47267688    -0.79240
O1232       O  0.57727050  0.54681747  0.47207204    -0.79260
O1233       O  0.95747224  0.58598434  0.48130843    -0.79270
O1234       O  0.52974295  0.92193989  0.48062138    -0.79210
O1235       O  0.50588127  0.55915846  0.45729951    -0.79340
O1236       O  0.97704288  0.93502864  0.45876406    -0.79260
O1237       O  0.56032790  0.98953576  0.46018892    -0.79240
O1238       O  0.94621630  0.52083360  0.45203997    -0.79280
C1239       C  0.91871213  0.99953522  0.45159788     1.10450
C1240       C  0.58286482  0.51733493  0.45566118     1.10330
C1241       C  0.98402490  0.58698336  0.46000324     1.10470
C1242       C  0.50467618  0.91540662  0.45969437     1.10350
O1243       O  0.97845696  0.91455820  0.52810104    -0.79240
O1244       O  0.52988684  0.57415299  0.52233161    -0.79320
O1245       O  0.91736244  0.52512930  0.52096806    -0.79250
O1246       O  0.58715814  0.95739809  0.51641154    -0.79230
O1247       O  0.56714158  0.51182342  0.53207910    -0.79290
O1248       O  0.92707017  0.96770314  0.54044140    -0.79250
O1249       O  0.52422898  0.94578458  0.54945101    -0.79210
O1250       O  0.97781236  0.55624941  0.54170077    -0.79280
Co1251     Co  0.95293519  0.95078190  0.50013542     1.51530
Co1252     Co  0.53326719  0.52909870  0.49341090     1.51690
Co1253     Co  0.96510453  0.53709144  0.49702002     1.51570
Co1254     Co  0.53869670  0.96954869  0.50584010     1.51470
O1255       O  0.98993060  0.99303904  0.50597851    -1.41180
C1256       C  0.00292952  0.91788977  0.54954050     1.10380
C1257       C  0.00420651  0.57862169  0.54303084     1.10470
C1258       C  0.90948425  0.99759189  0.54076735     1.10400
C1259       C  0.59130051  0.48653583  0.53370667     1.10380
C1260       C  0.00433933  0.71779053  0.37580327     0.04030
C1261       C  0.00354101  0.75039821  0.39413210    -0.12120
C1262       C  0.00073713  0.78439878  0.37776438     0.01530
C1263       C  0.99750785  0.78588396  0.34266574    -0.10650
C1264       C  0.00049559  0.75350736  0.32321828     0.04020
C1265       C  0.00469337  0.71935653  0.34043208    -0.10070
H1266       H  0.00419734  0.74924807  0.42138713     0.09610
H1267       H  0.99273909  0.81241165  0.33074233     0.07140
H1268       H  0.00758384  0.69382756  0.32666640     0.06990
C1269       C  0.78452593  0.00779088  0.37769185     0.04030
C1270       C  0.75121512  0.51022606  0.39517881    -0.12120
C1271       C  0.71853601  0.01321522  0.37769138     0.01530
C1272       C  0.71941001  0.01315376  0.34235220    -0.10650
C1273       C  0.75220592  0.00895583  0.32442765     0.04020
C1274       C  0.78452067  0.00683972  0.34238281    -0.10070
H1275       H  0.75056322  0.50961797  0.42242784     0.09610
H1276       H  0.69431007  0.01520207  0.32881681     0.07140
H1277       H  0.80991432  0.00407128  0.32874431     0.06990
C1278       C  0.77976255  0.99884219  0.62547049     0.04030
C1279       C  0.74822844  0.50561329  0.60743256    -0.12120
C1280       C  0.71406586  0.00441616  0.62310211     0.01530
C1281       C  0.71159918  0.00178477  0.65844238    -0.10650
C1282       C  0.74302151  0.99777903  0.67765676     0.04020
C1283       C  0.77669856  0.99433788  0.66072538    -0.10070
H1284       H  0.74988206  0.50962202  0.58041309     0.09610
H1285       H  0.68529710  0.00276982  0.67081349     0.07140
H1286       H  0.80032233  0.98819844  0.67528201     0.06990
C1287       C  0.99988955  0.71295343  0.62278571     0.04030
C1288       C  0.00022971  0.74751173  0.60632726    -0.12120
C1289       C  0.00150788  0.78050111  0.62491936     0.01530
C1290       C  0.00163066  0.77831796  0.66019857    -0.10650
C1291       C  0.99999939  0.74374176  0.67684353     0.04020
C1292       C  0.99906500  0.71113870  0.65793937    -0.10070
H1293       H  0.00004131  0.74865768  0.57909147     0.09610
H1294       H  0.00329775  0.80355343  0.67476993     0.07140
H1295       H  0.99792348  0.68430733  0.67055359     0.06990
C1296       C  0.74499486  0.95945828  0.12595773     0.04030
C1297       C  0.75063909  0.96060082  0.16074919    -0.12120
C1298       C  0.75313433  0.99476358  0.17756832     0.01530
C1299       C  0.75349097  0.52775457  0.15821162    -0.10650
C1300       C  0.74865164  0.52746201  0.12311966     0.04020
C1301       C  0.74236165  0.99281090  0.10770599    -0.10070
H1302       H  0.75307320  0.93480877  0.17466171     0.09610
H1303       H  0.75761277  0.55392216  0.17073659     0.07140
H1304       H  0.73635394  0.99139692  0.08120760     0.06990
O1305       O  0.76160082  0.79717138  0.05003382    -0.79240
O1306       O  0.73707320  0.69148077  0.04904445    -0.79260
O1307       O  0.66183746  0.78062423  0.01532444    -0.79270
O1308       O  0.80969224  0.73304574  0.03505253    -0.79210
O1309       O  0.68494477  0.74095830  0.05020445    -0.79340
O1310       O  0.83036572  0.78992043  0.02493865    -0.79260
O1311       O  0.77556570  0.66905817  0.01419143    -0.79240
O1312       O  0.72140931  0.82790940  0.02070282    -0.79280
C1313       C  0.74099574  0.82455950  0.04679252     1.10450
C1314       C  0.75709910  0.66530231  0.04132733     1.10330
C1315       C  0.65945778  0.76152722  0.04237218     1.10470
C1316       C  0.83363820  0.75902639  0.03986803     1.10350
O1317       O  0.81041112  0.76450996  0.96374310    -0.79240
O1318       O  0.66143760  0.71896115  0.98405576    -0.79320
O1319       O  0.74258259  0.80717846  0.95112470    -0.79250
O1320       O  0.75948120  0.70036393  0.94996102    -0.79230
O1321       O  0.71731599  0.66993890  0.97996835    -0.79290
O1322       O  0.78090419  0.82906881  0.98615365    -0.79250
O1323       O  0.82816945  0.70743952  0.97309044    -0.79210
O1324       O  0.68655784  0.75930328  0.94935560    -0.79280
Co1325     Co  0.78369429  0.77777405  0.00835603     1.51530
Co1326     Co  0.70249046  0.70762464  0.01544758     1.51690
Co1327     Co  0.70533784  0.79145514  0.98451013     1.51570
Co1328     Co  0.78212416  0.71990365  0.99108506     1.51470
O1329       O  0.73686657  0.74924256  0.99991260    -1.41180
C1330       C  0.83217882  0.73800767  0.95725849     1.10380
C1331       C  0.66042362  0.73771948  0.95681829     1.10470
C1332       C  0.76288867  0.83362356  0.95965446     1.10400
C1333       C  0.73780014  0.67277169  0.95371828     1.10380
C1334       C  0.52742823  0.75070057  0.12350659     0.04030
C1335       C  0.52789232  0.75617048  0.15814962    -0.12120
C1336       C  0.99529252  0.75982263  0.17613908     0.01530
C1337       C  0.96253932  0.76156259  0.15858626    -0.10650
C1338       C  0.96140949  0.75373240  0.12384578     0.04020
C1339       C  0.99441680  0.74555542  0.10746629    -0.10070
H1340       H  0.55351010  0.75731345  0.17105141     0.09610
H1341       H  0.93837053  0.76877147  0.17243727     0.07140
H1342       H  0.99508279  0.73676784  0.08155323     0.06990
C1343       C  0.74970186  0.96975987  0.88015116     0.04030
C1344       C  0.74917853  0.96788413  0.84481099    -0.12120
C1345       C  0.74414229  0.00011687  0.82515420     0.01530
C1346       C  0.73986073  0.53420281  0.84153875    -0.10650
C1347       C  0.74212626  0.53657685  0.87659140     0.04020
C1348       C  0.74660420  0.00422176  0.89582752    -0.10070
H1349       H  0.75272139  0.94138797  0.83270927     0.09610
H1350       H  0.73562625  0.55922988  0.82693366     0.07140
H1351       H  0.74789280  0.00590946  0.92298280     0.06990
C1352       C  0.52810168  0.74323733  0.87797233     0.04030
C1353       C  0.52986705  0.74322220  0.84260011    -0.12120
C1354       C  0.99818937  0.74109655  0.82349315     0.01530
C1355       C  0.96459894  0.73883754  0.84056590    -0.10650
C1356       C  0.96231819  0.74172523  0.87558274     0.04020
C1357       C  0.99415215  0.74379427  0.89412020    -0.10070
H1358       H  0.55605220  0.74479528  0.83003170     0.09610
H1359       H  0.93987600  0.73589801  0.82650708     0.07140
H1360       H  0.99244667  0.74550113  0.92129311     0.06990
C1361       C  0.73993442  0.64078095  0.92999052    -0.04440
C1362       C  0.70883812  0.62720471  0.91333561    -0.01560
C1363       C  0.70954201  0.59345412  0.89551521     0.03430
C1364       C  0.74166261  0.57338623  0.89322449    -0.04440
C1365       C  0.77344498  0.58799027  0.90759336    -0.01550
C1366       C  0.77253938  0.62093177  0.92650990     0.03430
C1367       C  0.67598241  0.64791347  0.91359071     0.38080
C1368       C  0.80708913  0.56831381  0.90379560     0.38070
C1369       C  0.80433018  0.63060229  0.94579311     0.36490
C1370       C  0.67684299  0.57873355  0.88029185     0.36490
N1371       N  0.83042098  0.63508300  0.96107802    -0.38330
N1372       N  0.65079522  0.56690718  0.86817295    -0.38330
N1373       N  0.83391261  0.55269829  0.90079736    -0.37770
N1374       N  0.64898921  0.66320951  0.91206911    -0.37780
C1375       C  0.76033160  0.87015185  0.94131660    -0.04440
C1376       C  0.79125511  0.89163722  0.93114453    -0.01560
C1377       C  0.78772269  0.92421136  0.91135393     0.03430
C1378       C  0.75337808  0.93555886  0.90111952    -0.04440
C1379       C  0.72233021  0.91514048  0.91206008    -0.01550
C1380       C  0.72564620  0.88308369  0.93245205     0.03430
C1381       C  0.82710462  0.88056971  0.93989870     0.38080
C1382       C  0.68681183  0.92740195  0.90244359     0.38070
C1383       C  0.69296185  0.86450140  0.94550099     0.36490
C1384       C  0.81961060  0.94615382  0.90127663     0.36490
N1385       N  0.66675519  0.85004796  0.95597398    -0.38330
N1386       N  0.84507107  0.96363881  0.89332915    -0.38330
N1387       N  0.65854750  0.93726534  0.89469741    -0.37770
N1388       N  0.85683830  0.87419526  0.94562719    -0.37780
C1389       C  0.92692747  0.75489401  0.10379398    -0.04440
C1390       C  0.89222949  0.74320602  0.11712810    -0.01560
C1391       C  0.86094265  0.74571787  0.09693707     0.03430
C1392       C  0.86481996  0.75330312  0.06222236    -0.04440
C1393       C  0.89972912  0.75744789  0.04846166    -0.01550
C1394       C  0.92879549  0.76542076  0.06924240     0.03430
C1395       C  0.88800849  0.72739364  0.15062482     0.38080
C1396       C  0.90783396  0.74196259  0.01590510     0.38070
C1397       C  0.95933102  0.78596161  0.05422937     0.36490
C1398       C  0.82514427  0.73933383  0.11154198     0.36490
N1399       N  0.98336025  0.80242102  0.04175719    -0.38330
N1400       N  0.79658105  0.73435638  0.12332282    -0.38330
N1401       N  0.91591249  0.72710704  0.99133290    -0.37770
N1402       N  0.88379612  0.71464648  0.17728364    -0.37780
C1403       C  0.62513968  0.75902354  0.06270071    -0.04440
C1404       C  0.61364254  0.72440255  0.07738149    -0.01560
C1405       C  0.58182137  0.72175301  0.09735834     0.03430
C1406       C  0.56131213  0.75339651  0.10310623    -0.04440
C1407       C  0.57204923  0.78768838  0.08807438    -0.01550
C1408       C  0.60334221  0.79036153  0.06727607     0.03430
C1409       C  0.63337413  0.69079304  0.07082855     0.38080
C1410       C  0.55098669  0.82041247  0.09443765     0.38070
C1411       C  0.61357762  0.82573187  0.05165019     0.36490
C1412       C  0.56974962  0.68627197  0.11164643     0.36490
N1413       N  0.62177516  0.85399202  0.03931281    -0.38330
N1414       N  0.56004266  0.65795710  0.12293523    -0.38330
N1415       N  0.53418836  0.84646267  0.09967775    -0.37770
N1416       N  0.64902059  0.66397582  0.06559557    -0.37780
C1417       C  0.86169247  0.74333613  0.93179502    -0.04440
C1418       C  0.86628904  0.71733474  0.90592608    -0.01560
C1419       C  0.89957331  0.71564973  0.88838207     0.03430
C1420       C  0.92652393  0.74353171  0.89304417    -0.04440
C1421       C  0.91926602  0.77331527  0.91479534    -0.01550
C1422       C  0.88779487  0.77234667  0.93523414     0.03430
C1423       C  0.83581356  0.69515589  0.89460404     0.38080
C1424       C  0.94450574  0.80473694  0.91675446     0.38070
C1425       C  0.88519231  0.79866505  0.96240268     0.36490
C1426       C  0.90641448  0.68426130  0.86679674     0.36490
N1427       N  0.88553391  0.81912056  0.98464912    -0.38330
N1428       N  0.91199629  0.65914670  0.84971971    -0.38330
N1429       N  0.96452042  0.82984167  0.91835971    -0.37770
N1430       N  0.81174016  0.67858224  0.88343428    -0.37780
C1431       C  0.62687647  0.73793188  0.93570685    -0.04440
C1432       C  0.62402455  0.76330890  0.90811106    -0.01560
C1433       C  0.59100881  0.76688736  0.89127239     0.03430
C1434       C  0.56177085  0.74195762  0.89823742    -0.04440
C1435       C  0.56506100  0.71510479  0.92414392    -0.01550
C1436       C  0.59640960  0.71439965  0.94389473     0.03430
C1437       C  0.65480349  0.78570739  0.89587364     0.38080
C1438       C  0.53654269  0.68720943  0.93010833     0.38070
C1439       C  0.59708232  0.68815516  0.97184796     0.36490
C1440       C  0.58685064  0.79737391  0.86753934     0.36490
N1441       N  0.59733276  0.66711577  0.99402865    -0.38330
N1442       N  0.58352907  0.82174207  0.84875065    -0.38330
N1443       N  0.51384822  0.66500067  0.93496323    -0.37770
N1444       N  0.67915354  0.80338861  0.88548810    -0.37780
C1445       C  0.75618368  0.63049215  0.06293139    -0.04440
C1446       C  0.74162405  0.63042099  0.09636618    -0.01560
C1447       C  0.73599903  0.59659746  0.11449731     0.03430
C1448       C  0.75113083  0.56318482  0.10262062    -0.04440
C1449       C  0.76823545  0.56432028  0.07042292    -0.01550
C1450       C  0.76578946  0.59590485  0.04955821     0.03430
C1451       C  0.73060927  0.66460321  0.11213082     0.38080
C1452       C  0.78804167  0.53316289  0.05740379     0.38070
C1453       C  0.76393941  0.58906410  0.01400468     0.36490
C1454       C  0.71241746  0.59630525  0.14408625     0.36490
N1455       N  0.75979286  0.57916349  0.98678717    -0.38330
N1456       N  0.69344563  0.59626356  0.16755666    -0.38330
N1457       N  0.80385706  0.50898239  0.04581009    -0.37770
N1458       N  0.72154341  0.69161870  0.12493253    -0.37780
C1459       C  0.74469911  0.92330486  0.10789868    -0.04440
C1460       C  0.77549370  0.91296796  0.08911938    -0.01560
C1461       C  0.77451460  0.88053794  0.06944705     0.03430
C1462       C  0.74378493  0.85622264  0.07068737    -0.04440
C1463       C  0.71487839  0.86445907  0.09277563    -0.01550
C1464       C  0.71426529  0.89887886  0.10955948     0.03430
C1465       C  0.80859927  0.93535100  0.09061404     0.38080
C1466       C  0.68793459  0.83608252  0.10135807     0.38070
C1467       C  0.68171254  0.90967733  0.12731183     0.36490
C1468       C  0.80528714  0.87298105  0.04775467     0.36490
N1469       N  0.65524437  0.91835760  0.14068727    -0.38330
N1470       N  0.83048246  0.86844458  0.03076759    -0.38330
N1471       N  0.66732582  0.81327578  0.11029961    -0.37770
N1472       N  0.83525402  0.95274595  0.09217751    -0.37780
C1473       C  0.99951620  0.74194349  0.71423889    -0.04440
C1474       C  0.97231328  0.75999932  0.73254096    -0.01560
C1475       C  0.97458606  0.76330743  0.76759444     0.03430
C1476       C  0.99963690  0.74194298  0.78572207    -0.04440
C1477       C  0.52485500  0.72059959  0.76729943    -0.01550
C1478       C  0.52634900  0.72282538  0.73181608     0.03430
C1479       C  0.93979241  0.77168425  0.71604802     0.38080
C1480       C  0.54846073  0.69517417  0.78429379     0.38070
C1481       C  0.55563966  0.70555084  0.71348110     0.36490
C1482       C  0.95159308  0.78975742  0.78439819     0.36490
N1483       N  0.57906348  0.69194307  0.69882460    -0.38330
N1484       N  0.93318318  0.81085598  0.79763429    -0.38330
N1485       N  0.56737360  0.67485451  0.79771410    -0.37770
N1486       N  0.91270049  0.77946880  0.70402463    -0.37780
C1487       C  0.74158261  0.99864956  0.71551344    -0.04440
C1488       C  0.71960566  0.97337332  0.73485052    -0.01560
C1489       C  0.71981271  0.97433102  0.77049672     0.03430
C1490       C  0.74378495  0.99878762  0.78737074    -0.04440
C1491       C  0.76609159  0.52363616  0.76794727    -0.01550
C1492       C  0.76304743  0.52522574  0.73262578     0.03430
C1493       C  0.69622883  0.94649018  0.71856199     0.38080
C1494       C  0.79298526  0.54714979  0.78409366     0.38070
C1495       C  0.77913331  0.55662649  0.71428584     0.36490
C1496       C  0.69432364  0.95094950  0.78975094     0.36490
N1497       N  0.79083359  0.58248906  0.70002029    -0.38330
N1498       N  0.67391205  0.93243182  0.80512841    -0.38330
N1499       N  0.81454006  0.56571463  0.79701276    -0.37770
N1500       N  0.67686723  0.92477601  0.70670763    -0.37780
C1501       C  0.75458525  0.99649493  0.21543562    -0.04440
C1502       C  0.77948122  0.52092223  0.23144011    -0.01560
C1503       C  0.77698900  0.52684822  0.26647969     0.03430
C1504       C  0.75278356  0.00501839  0.28687143    -0.04440
C1505       C  0.73015569  0.97824119  0.27133669    -0.01550
C1506       C  0.72962936  0.97543362  0.23592285     0.03430
C1507       C  0.80865130  0.53922457  0.21224569     0.38080
C1508       C  0.70792703  0.95263468  0.29176222     0.38070
C1509       C  0.70228847  0.95149850  0.22105452     0.36490
C1510       C  0.79859520  0.55645257  0.28126854     0.36490
N1511       N  0.68021063  0.93211897  0.20995972    -0.38330
N1512       N  0.81567511  0.58014299  0.29309840    -0.38330
N1513       N  0.69032176  0.93213249  0.30802352    -0.37770
N1514       N  0.83195048  0.55384059  0.19700581    -0.37780
C1515       C  0.99874680  0.75551260  0.28524847    -0.04440
C1516       C  0.97829420  0.72876071  0.26693333    -0.01560
C1517       C  0.97844290  0.72968026  0.23144149     0.03430
C1518       C  0.99542062  0.75944182  0.21358996    -0.04440
C1519       C  0.51457566  0.78696007  0.23136646    -0.01550
C1520       C  0.51760615  0.78424061  0.26669126     0.03430
C1521       C  0.95619289  0.70026484  0.28383101     0.38080
C1522       C  0.53143658  0.81813904  0.21314620     0.38070
C1523       C  0.54153132  0.81060334  0.28308932     0.36490
C1524       C  0.96299959  0.69854339  0.21315661     0.36490
N1525       N  0.56068283  0.83238275  0.29513914    -0.38330
N1526       N  0.95137356  0.67338808  0.19862700    -0.38330
N1527       N  0.54480744  0.84297231  0.19856674    -0.37770
N1528       N  0.93843785  0.67677901  0.29608255    -0.37780
C1529       C  0.00387181  0.81734647  0.60744006    -0.04440
C1530       C  0.53150558  0.82493648  0.58306504    -0.01560
C1531       C  0.53199153  0.85855852  0.56468908     0.03430
C1532       C  0.00715395  0.88636575  0.57276086    -0.04440
C1533       C  0.98080562  0.87975182  0.59815289    -0.01550
C1534       C  0.97826544  0.84494929  0.61453024     0.03430
C1535       C  0.55942642  0.79818450  0.57656342     0.38080
C1536       C  0.95505059  0.90829704  0.60621761     0.38070
C1537       C  0.94713518  0.83697656  0.63615331     0.36490
C1538       C  0.55752370  0.86398279  0.53682125     0.36490
N1539       N  0.92124522  0.83207129  0.65245450    -0.38330
N1540       N  0.57812482  0.86777597  0.51474435    -0.38330
N1541       N  0.93457251  0.93101556  0.61275378    -0.37770
N1542       N  0.58172356  0.77694975  0.57120145    -0.37780
C1543       C  0.00313982  0.61154824  0.56578349    -0.04440
C1544       C  0.96947693  0.62765342  0.57457580    -0.01560
C1545       C  0.96858044  0.66039270  0.59368422     0.03430
C1546       C  0.00098003  0.67826940  0.60317147    -0.04440
C1547       C  0.53443709  0.66279954  0.59453700    -0.01550
C1548       C  0.53556360  0.62925771  0.57656419     0.03430
C1549       C  0.93539849  0.61211164  0.56292852     0.38080
C1550       C  0.56782992  0.68171101  0.60399648     0.38070
C1551       C  0.57030813  0.61284426  0.57016636     0.36490
C1552       C  0.93418827  0.67618360  0.60330815     0.36490
N1553       N  0.59841626  0.60026543  0.56566412    -0.38330
N1554       N  0.90685905  0.68882310  0.61111364    -0.38330
N1555       N  0.59444293  0.69690178  0.61138590    -0.37770
N1556       N  0.90780661  0.60036229  0.55399271    -0.37780
C1557       C  0.00446994  0.88187733  0.43882113    -0.04440
C1558       C  0.97484968  0.85631297  0.44199141    -0.01560
C1559       C  0.97284367  0.82524497  0.42097479     0.03430
C1560       C  0.00138055  0.81845506  0.39805817    -0.04440
C1561       C  0.53172166  0.84293069  0.39616084    -0.01550
C1562       C  0.53207356  0.87583049  0.41483240     0.03430
C1563       C  0.94627152  0.86192332  0.46685051     0.38080
C1564       C  0.56371131  0.83301023  0.37700621     0.38070
C1565       C  0.55851410  0.90484163  0.40644723     0.36490
C1566       C  0.94162436  0.80002335  0.42322806     0.36490
N1567       N  0.57890222  0.92802603  0.39786897    -0.38330
N1568       N  0.91677604  0.77988162  0.42512758    -0.38330
N1569       N  0.58975807  0.82466643  0.36272738    -0.37770
N1570       N  0.92345924  0.86644815  0.48658250    -0.37780
C1571       C  0.98964720  0.61941565  0.43716214    -0.04440
C1572       C  0.96283623  0.62978285  0.41427550    -0.01560
C1573       C  0.96747902  0.66233601  0.39472931     0.03430
C1574       C  0.00078026  0.68223105  0.39462977    -0.04440
C1575       C  0.52825631  0.67125398  0.41650902    -0.01550
C1576       C  0.52216277  0.64088395  0.43867527     0.03430
C1577       C  0.93111925  0.60653892  0.40901792     0.38080
C1578       C  0.56239517  0.69202290  0.41696374     0.38070
C1579       C  0.54901922  0.63301531  0.46380150     0.36490
C1580       C  0.93671071  0.67721765  0.37733210     0.36490
N1581       N  0.57110026  0.62791064  0.48350510    -0.38330
N1582       N  0.91171785  0.68946755  0.36451435    -0.38330
N1583       N  0.58961528  0.70858157  0.41734995    -0.37770
N1584       N  0.90569107  0.58904371  0.40233362    -0.37780
C1585       C  0.62257089  0.49127355  0.55674861    -0.04440
C1586       C  0.64615171  0.52272731  0.55361841    -0.01560
C1587       C  0.67410533  0.52869186  0.57702518     0.03430
C1588       C  0.68134871  0.00131250  0.60155467    -0.04440
C1589       C  0.66000206  0.96830839  0.60240853    -0.01550
C1590       C  0.62937892  0.96455421  0.58192595     0.03430
C1591       C  0.64357015  0.54785077  0.52511086     0.38160
C1592       C  0.67153596  0.93648218  0.62170739     0.38070
C1593       C  0.60441520  0.93381590  0.58846594     0.36490
C1594       C  0.69592498  0.56268852  0.57529362     0.36490
N1595       N  0.58526858  0.90922654  0.59602524    -0.38330
N1596       N  0.71334281  0.58980318  0.57383927    -0.38330
N1597       N  0.68115194  0.91040689  0.63583608    -0.37770
N1598       N  0.64280470  0.56831006  0.50253019    -0.37780
C1599       C  0.81500535  0.99545405  0.60616271    -0.04440
C1600       C  0.81551365  0.97552258  0.57543558    -0.01560
C1601       C  0.84552667  0.97866716  0.55324379     0.03430
C1602       C  0.87702787  0.99829736  0.56284352    -0.04440
C1603       C  0.87864791  0.51423446  0.59496198    -0.01550
C1604       C  0.84755551  0.51387735  0.61621586     0.03430
C1605       C  0.78580985  0.95031913  0.56695687     0.38080
C1606       C  0.91271820  0.52991517  0.60660693     0.38070
C1607       C  0.85012801  0.53217041  0.64835297     0.36490
C1608       C  0.84384976  0.96155940  0.52033274     0.36490
N1609       N  0.85404178  0.54637602  0.67404984    -0.38330
N1610       N  0.84202398  0.94803125  0.49410469    -0.38330
N1611       N  0.93990701  0.54200536  0.61621553    -0.37770
N1612       N  0.76219773  0.93027681  0.56002054    -0.37780
C1613       C  0.68301746  0.01386520  0.39641457    -0.04440
C1614       C  0.66026113  0.54461621  0.39392641    -0.01560
C1615       C  0.62655057  0.54470804  0.41146243     0.03430
C1616       C  0.61552820  0.51456435  0.43268917    -0.04440
C1617       C  0.63795998  0.98308582  0.43392884    -0.01550
C1618       C  0.67128323  0.98284401  0.41590402     0.03430
C1619       C  0.67186189  0.57664839  0.37379195     0.38080
C1620       C  0.62752610  0.95005276  0.45306354     0.38070
C1621       C  0.69342878  0.95009424  0.41698011     0.36490
C1622       C  0.60227270  0.57490743  0.40566059     0.36490
N1623       N  0.71108630  0.92404543  0.41786530    -0.38330
N1624       N  0.58307685  0.59888090  0.39979530    -0.38330
N1625       N  0.62087570  0.92207784  0.46659136    -0.37770
N1626       N  0.68118220  0.60220830  0.35775313    -0.37780
C1627       C  0.88746035  0.00523833  0.42929015    -0.04440
C1628       C  0.87889718  0.97838295  0.40490153    -0.01560
C1629       C  0.84494505  0.97831686  0.38900397     0.03430
C1630       C  0.81971035  0.00637574  0.39605257    -0.04440
C1631       C  0.82868794  0.53357662  0.42021451    -0.01550
C1632       C  0.86158332  0.53197685  0.43771464     0.03430
C1633       C  0.90472277  0.94990996  0.39701640     0.38080
C1634       C  0.80432307  0.56368575  0.42699015     0.38070
C1635       C  0.86828741  0.55780834  0.46481282     0.36490
C1636       C  0.83535580  0.94803086  0.36681295     0.36490
N1637       N  0.87292485  0.57898292  0.48609482    -0.38330
N1638       N  0.82769470  0.92381587  0.34917908    -0.38330
N1639       N  0.78489678  0.58765953  0.43249596    -0.37770
N1640       N  0.92536369  0.92725996  0.39073924    -0.37780
loop_ 
_geom_bond_atom_site_label_1 
_geom_bond_atom_site_label_2 
_geom_bond_distance 
_geom_bond_site_symmetry_2 
_ccdc_geom_bond_type 
O1            C9   1.245       .  A
O1          Co21   1.963       .  S
O2           C10   1.272       .  A
O2          Co22   1.914       .  S
O3           C11   1.285       .  A
O3          Co23   1.893       .  S
O4           C12   1.274       .  A
O4          Co24   2.019       .  S
O5          C831   1.308   1_455  A
O5          Co22   2.081       .  S
O6          C832   1.258       .  A
O6          Co21   1.953       .  S
O7          C420   1.295       .  A
O7          Co24   2.085       .  S
O8          C419   1.258   1_545  A
O8          Co23   2.017       .  S
C9          O418   1.258       .  A
C9          C397   1.485       .  S
C10         O417   1.295   1_545  A
C10         C386   1.507       .  S
C11         O825   1.308       .  A
C11         C341   1.481       .  S
C12         O826   1.258   1_455  A
C12        C1147   1.473       .  S
O13          C26   1.257       .  A
O13         Co21   1.974       .  S
O14         C847   1.260       .  A
O14         Co22   2.004       .  S
O15         C438   1.285   1_545  A
O15         Co23   2.026       .  S
O16         C439   1.268       .  A
O16         Co24   1.907       .  S
O17          C29   1.294   1_545  A
O17         Co22   2.098       .  S
O18          C28   1.272       .  A
O18         Co21   1.962       .  S
O19         C846   1.261       .  A
O19         Co24   1.985       .  S
O20          C27   1.252       .  A
O20         Co23   1.971       .  S
Co21         O25   2.039       .  S
Co22       O1255   2.087   1_445  S
Co23        O435   1.888   1_545  S
Co24        O845   2.010   1_455  S
O25       Co1252   2.087       .  S
O25        Co433   1.888       .  S
O25        Co844   2.010       .  S
C26         O839   1.261       .  A
C26         C302   1.470       .  S
C27         O834   1.260       .  A
C27         C313   1.500       .  S
C28         O425   1.285       .  A
C28         C372   1.475       .  S
C29         O426   1.268       .  A
C29         C355   1.494       .  S
C30         C344   1.480       .  S
C30          C31   1.390       .  A
C30          C35   1.406       .  A
C31          C32   1.389       .  A
C31          H36   1.084       .  S
C32         C330   1.475       .  S
C32          C33   1.403       .  A
C33          C34   1.412       .  A
C33          H37   1.083       .  S
C34         C285   1.513       .  S
C34          C35   1.416       .  A
C35          H38   1.082       .  S
C39         C400   1.503       .  S
C39          C44   1.404       .  A
C39         C450   1.410       .  A
C40         C449   1.410       .  A
C40         C451   1.408       .  A
C40          H45   1.083       .  S
C41         C383   1.499       .  S
C41          C42   1.404       .  A
C41         C450   1.408       .  A
C42          C43   1.408       .  A
C42          H46   1.084       .  S
C43         C274   1.501       .  S
C43          C44   1.405       .  A
C44          H47   1.083       .  S
C48         C369   1.509       .  S
C48          C53   1.411       .  A
C48         C459   1.405       .  A
C49         C458   1.405   1_545  A
C49         C460   1.397       .  A
C49          H54   1.083       .  S
C50         C358   1.496       .  S
C50          C51   1.408       .  A
C50         C459   1.397       .  A
C51          C52   1.410       .  A
C51          H55   1.084       .  S
C52         C257   1.505       .  S
C52          C53   1.414       .  A
C53          H56   1.082       .  S
C57         C316   1.481       .  S
C57          C58   1.401       .  A
C57          C62   1.398       .  A
C58          C59   1.406       .  A
C58          H63   1.083       .  S
C59         C299   1.493       .  S
C59          C60   1.404       .  A
C60          C61   1.405       .  A
C60          H64   1.084       .  S
C61         C243   1.487       .  S
C61          C62   1.401       .  A
C62          H65   1.085       .  S
C66         C229   1.494       .  S
C66          C67   1.403       .  A
C66          C71   1.404       .  A
C67          C68   1.409       .  A
C67          H72   1.083       .  S
C68         C271   1.509       .  S
C68         C479   1.410       .  A
C69          C70   1.409       .  A
C69         C478   1.410   1_545  A
C69          H73   1.079       .  S
C70         C218   1.517       .  S
C70         C481   1.412   1_545  A
C71         C480   1.412       .  A
C71          H74   1.081       .  S
O75          C83   1.269       .  A
O75         Co95   1.976       .  S
O76          C84   1.251       .  A
O76         Co96   1.958       .  S
O77          C85   1.271       .  A
O77         Co97   2.032   1_554  S
O78          C86   1.290       .  A
O78         Co98   2.090   1_554  S
O79          C85   1.255       .  A
O79         Co96   1.953       .  S
O80          C86   1.266       .  A
O80         Co95   1.899       .  S
O81          C84   1.271       .  A
O81         Co98   2.049   1_554  S
O82          C83   1.281       .  A
O82         Co97   2.043   1_554  S
C83         C232   1.495       .  S
C84         C215   1.513       .  S
C85         C173   1.493       .  S
C86         C162   1.484       .  S
O87         C100   1.289       .  A
O87         Co95   2.081   1_556  S
O88         C101   1.272       .  A
O88         Co96   2.027   1_556  S
O89         C102   1.251       .  A
O89         Co97   1.965       .  S
O90         C103   1.268       .  A
O90         Co98   1.976       .  S
O91         C103   1.281       .  A
O91         Co96   2.045   1_556  S
O92         C102   1.267       .  A
O92         Co95   2.047   1_556  S
O93         C100   1.268       .  A
O93         Co98   1.901       .  S
O94         C101   1.255       .  A
O94         Co97   1.950       .  S
Co95         O99   2.025   1_554  S
Co96         O99   2.026   1_554  S
Co97         O99   2.035       .  S
Co98         O99   2.029       .  S
C100        C187   1.483       .  S
C101        C201   1.509       .  S
C102        C145   1.504       .  S
C103        C131   1.500       .  S
C104        C176   1.481       .  S
C104        C105   1.393       .  A
C104        C929   1.395   1_455  A
C105        C926   1.400   1_455  A
C105        H110   1.084       .  S
C106        C288   1.488       .  S
C106        C107   1.409       .  A
C106        C925   1.400       .  A
C107        C108   1.413       .  A
C107        H111   1.080       .  S
C108        C159   1.515       .  S
C108        C109   1.412       .  A
C109        C924   1.395       .  A
C109        H112   1.081       .  S
C113        C148   1.492       .  S
C113        C114   1.407       .  A
C113        C118   1.402       .  A
C114        C115   1.412       .  A
C114        H119   1.083       .  S
C115        C260   1.503       .  S
C115        C526   1.407       .  A
C116        C117   1.400       .  A
C116        C525   1.407       .  A
C116        H120   1.084       .  S
C117        C134   1.489       .  S
C117        C528   1.403       .  A
C118        C527   1.403       .  A
C118        H121   1.083       .  S
C122        C204   1.495       .  S
C122        C123   1.406       .  A
C122        C947   1.400   1_455  A
C123        C944   1.407   1_455  A
C123        H128   1.082       .  S
C124        C246   1.501       .  S
C124        C125   1.405       .  A
C124        C943   1.407       .  A
C125        C126   1.398       .  A
C125        H129   1.082       .  S
C126        C190   1.487       .  S
C126        C127   1.399       .  A
C127        C942   1.400       .  A
C127        H130   1.083       .  S
C131        C132   1.415       .  A
C131        C136   1.422       .  A
C132        C133   1.414       .  A
C132        C137   1.441       .  S
C133        C134   1.408       .  A
C133        C140   1.451       .  S
C134        C135   1.407       .  A
C135        C136   1.412       .  A
C135        C138   1.453       .  S
C136        C139   1.450       .  S
C137        N144   1.154       .  T
C138        N143   1.157       .  T
C139        N141   1.157       .  T
C140        N142   1.157       .  T
C145        C146   1.415       .  A
C145        C150   1.423       .  A
C146        C147   1.417       .  A
C146        C151   1.440       .  S
C147        C148   1.408       .  A
C147        C154   1.451       .  S
C148        C149   1.408       .  A
C149        C150   1.414       .  A
C149        C152   1.451       .  S
C150        C153   1.452       .  S
C151        N158   1.154       .  T
C152        N157   1.157       .  T
C153        N155   1.157       .  T
C154        N156   1.157       .  T
C159        C160   1.431       .  A
C159        C164   1.421       .  A
C160        C161   1.423       .  A
C160        C165   1.447       .  S
C161        C162   1.408       .  A
C161        C168   1.448       .  S
C162        C163   1.397       .  A
C163        C164   1.392       .  A
C163        C166   1.444       .  S
C164        C167   1.451       .  S
C165        N172   1.157       .  T
C166        N171   1.157   1_554  T
C167        N169   1.157       .  T
C168        N170   1.157       .  T
C173        C174   1.425       .  A
C173        C178   1.415       .  A
C174        C175   1.409       .  A
C174        C179   1.453       .  S
C175        C176   1.404       .  A
C175        C182   1.451       .  S
C176        C177   1.413       .  A
C177        C178   1.411       .  A
C177        C180   1.451       .  S
C178        C181   1.451       .  S
C179        N186   1.158       .  T
C180        N185   1.157       .  T
C181        N183   1.157       .  T
C182        N184   1.157       .  T
C187        C188   1.409       .  A
C187        C192   1.414       .  A
C188        C189   1.407       .  A
C188        C193   1.445       .  S
C189        C190   1.413       .  A
C189        C196   1.451       .  S
C190        C191   1.413       .  A
C191        C192   1.407       .  A
C191        C194   1.453       .  S
C192        C195   1.448       .  S
C193        N200   1.156       .  T
C194        N199   1.157       .  T
C195        N197   1.157       .  T
C196        N198   1.157       .  T
C201        C202   1.428       .  A
C201        C206   1.424       .  A
C202        C203   1.409       .  A
C202        C207   1.453       .  S
C203        C204   1.410       .  A
C203        C210   1.454       .  S
C204        C205   1.415       .  A
C205        C206   1.411       .  A
C205        C208   1.453       .  S
C206        C209   1.453       .  S
C207        N214   1.158       .  T
C208        N213   1.157       .  T
C209        N211   1.157       .  T
C210        N212   1.157       .  T
C215        C216   1.425       .  A
C215        C220   1.411       .  A
C216        C217   1.419       .  A
C216        C221   1.452       .  S
C217        C218   1.422       .  A
C217        C224   1.452       .  S
C218        C219   1.418       .  A
C219        C220   1.407       .  A
C219        C222   1.451       .  S
C220        C223   1.439       .  S
C221        N228   1.158       .  T
C222        N227   1.157       .  T
C223        N225   1.154   1_554  T
C224        N226   1.158       .  T
C229        C230   1.411       .  A
C229        C234   1.411       .  A
C230        C231   1.413       .  A
C230        C235   1.451       .  S
C231        C232   1.417       .  A
C231        C238   1.449       .  S
C232        C233   1.411       .  A
C233        C234   1.415       .  A
C233        C236   1.444       .  S
C234        C237   1.448       .  S
C235        N242   1.157       .  T
C236        N241   1.156       .  T
C237        N239   1.157       .  T
C238        N240   1.157       .  T
C243        C244   1.408       .  A
C243       C1068   1.412       .  A
C244        C245   1.403       .  A
C244        C249   1.448       .  S
C245        C246   1.420       .  A
C245        C252   1.453       .  S
C246       C1067   1.422       .  A
C247        C248   1.412       .  A
C247       C1066   1.422   1_455  A
C247        C250   1.451       .  S
C248       C1063   1.412   1_455  A
C248        C251   1.452       .  S
C249        N256   1.156       .  T
C250        N255   1.157       .  T
C251        N253   1.157       .  T
C252        N254   1.158       .  T
C257        C258   1.417       .  A
C257        C672   1.414       .  A
C258        C259   1.418       .  A
C258        C263   1.447       .  S
C259        C260   1.416       .  A
C259        C266   1.451       .  S
C260        C671   1.416       .  A
C261        C262   1.411       .  A
C261        C670   1.416   1_545  A
C261        C264   1.452       .  S
C262        C667   1.414   1_545  A
C262        C265   1.450       .  S
C263        N270   1.156       .  T
C264        N269   1.157       .  T
C265        N267   1.157       .  T
C266        N268   1.157       .  T
C271        C276   1.420       .  A
C271        C682   1.420       .  A
C272        C273   1.413       .  A
C272        C681   1.420   1_545  A
C272        C277   1.451       .  S
C273        C684   1.415       .  A
C273        C280   1.452       .  S
C274        C275   1.414       .  A
C274        C683   1.415       .  A
C275        C276   1.413       .  A
C275        C278   1.453       .  S
C276        C279   1.449       .  S
C277        N284   1.157       .  T
C278        N283   1.157       .  T
C279        N281   1.157       .  T
C280        N282   1.157       .  T
C285        C286   1.424       .  A
C285       C1110   1.426       .  A
C286        C287   1.411       .  A
C286        C291   1.449       .  S
C287        C288   1.409       .  A
C287        C294   1.453       .  S
C288       C1109   1.407       .  A
C289        C290   1.413       .  A
C289       C1108   1.407   1_455  A
C289        C292   1.452       .  S
C290       C1105   1.426   1_455  A
C290        C293   1.449       .  S
C291        N298   1.157       .  T
C292        N297   1.157       .  T
C293        N295   1.156       .  T
C294        N296   1.157       .  T
C299        C304   1.417       .  A
C299       C1120   1.416       .  A
C300        C301   1.408       .  A
C300       C1119   1.416       .  A
C300        C305   1.452       .  S
C301       C1122   1.412       .  A
C301        C308   1.452       .  S
C302        C303   1.405       .  A
C302       C1121   1.412       .  A
C303        C304   1.408       .  A
C303        C306   1.454       .  S
C304        C307   1.446       .  S
C305        N312   1.157       .  T
C306        N311   1.157       .  T
C307        N309   1.155       .  T
C308        N310   1.157       .  T
C313        C314   1.426       .  A
C313       C1138   1.418       .  A
C314        C315   1.410       .  A
C314        C319   1.450       .  S
C315        C316   1.404       .  A
C315        C322   1.453       .  S
C316       C1137   1.408       .  A
C317        C318   1.412       .  A
C317       C1136   1.408       .  A
C317        C320   1.452       .  S
C318       C1133   1.418       .  A
C318        C321   1.447       .  S
C319        N326   1.157       .  T
C320        N325   1.157       .  T
C321        N323   1.156       .  T
C322        N324   1.157       .  T
C327        C832   1.473       .  S
C327        C328   1.416       .  A
C327       C1152   1.407       .  A
C328        C329   1.405       .  A
C328        C333   1.453       .  S
C329        C330   1.410       .  A
C329        C336   1.452       .  S
C330       C1151   1.410       .  A
C331        C332   1.405       .  A
C331       C1150   1.410       .  A
C331        C334   1.450       .  S
C332       C1147   1.407       .  A
C332        C335   1.446       .  S
C333        N340   1.158       .  T
C334        N339   1.157       .  T
C335        N337   1.156       .  T
C336        N338   1.157       .  T
C341        C342   1.411       .  A
C341       C1166   1.415       .  A
C342        C343   1.406       .  A
C342        C347   1.443       .  S
C343        C344   1.409       .  A
C343        C350   1.452       .  S
C344       C1165   1.409       .  A
C345        C346   1.410       .  A
C345       C1164   1.409       .  A
C345        C348   1.451       .  S
C346       C1161   1.415   1_455  A
C346        C349   1.451       .  S
C347        N354   1.155       .  T
C348        N353   1.157       .  T
C349        N351   1.157       .  T
C350        N352   1.157       .  T
C355        C356   1.416   1_565  A
C355        C770   1.412       .  A
C356        C357   1.415       .  A
C356        C361   1.449       .  S
C357        C768   1.414       .  A
C357        C364   1.450       .  S
C358        C359   1.411       .  A
C358        C767   1.414       .  A
C359        C360   1.410       .  A
C359        C362   1.451       .  S
C360        C765   1.412       .  A
C360        C363   1.443       .  S
C361        N368   1.157       .  T
C362        N367   1.157       .  T
C363        N365   1.154       .  T
C364        N366   1.157       .  T
C369        C370   1.423       .  A
C369        C784   1.423       .  A
C370        C371   1.407       .  A
C370        C375   1.453       .  S
C371        C372   1.407       .  A
C371        C378   1.453       .  S
C372        C783   1.406       .  A
C373        C374   1.415       .  A
C373        C782   1.406   1_545  A
C373        C376   1.452       .  S
C374        C779   1.423   1_545  A
C374        C377   1.447       .  S
C375        N382   1.157       .  T
C376        N381   1.157       .  T
C377        N379   1.157       .  T
C378        N380   1.157       .  T
C383        C388   1.409       .  A
C383        C794   1.413       .  A
C384        C385   1.417       .  A
C384        C793   1.413       .  A
C384        C389   1.450       .  S
C385        C386   1.417       .  A
C385        C392   1.447       .  S
C386        C797   1.424   1_545  A
C387        C388   1.415       .  A
C387        C796   1.424       .  A
C387        C390   1.447       .  S
C388        C391   1.454       .  S
C389        N396   1.157       .  T
C390        N395   1.157       .  T
C391        N393   1.157       .  T
C392        N394   1.156       .  T
C397        C398   1.411       .  A
C397        C812   1.414       .  A
C398        C399   1.414       .  A
C398        C403   1.452       .  S
C399        C400   1.420       .  A
C399        C406   1.451       .  S
C400        C811   1.416       .  A
C401        C402   1.413       .  A
C401        C810   1.416       .  A
C401        C404   1.452       .  S
C402        C807   1.414       .  A
C402        C405   1.451       .  S
C403        N410   1.157       .  T
C404        N409   1.157       .  T
C405        N407   1.157       .  T
C406        N408   1.157       .  T
O411        C419   1.245       .  A
O411       Co431   1.963       .  S
O412        C420   1.272       .  A
O412       Co432   1.914       .  S
O413        C421   1.285       .  A
O413       Co433   1.893       .  S
O414        C422   1.274       .  A
O414       Co434   2.019       .  S
O415       C1241   1.308   1_455  A
O415       Co432   2.081       .  S
O416       C1242   1.258       .  A
O416       Co431   1.953       .  S
O417       Co434   2.085       .  S
O418       Co433   2.017       .  S
C419        C807   1.485   1_565  S
C420        C796   1.507       .  S
C421       O1235   1.308       .  A
C421        C751   1.481       .  S
C422       O1236   1.258   1_455  A
C422       C1557   1.473       .  S
O423        C436   1.257       .  A
O423       Co431   1.974       .  S
O424       C1257   1.260       .  A
O424       Co432   2.004       .  S
O425       Co433   2.026       .  S
O426       Co434   1.907       .  S
O427        C439   1.294       .  A
O427       Co432   2.098       .  S
O428        C438   1.272       .  A
O428       Co431   1.962       .  S
O429       C1256   1.261       .  A
O429       Co434   1.985       .  S
O430        C437   1.252       .  A
O430       Co433   1.971       .  S
Co431       O435   2.039       .  S
Co432       O845   2.087   1_455  S
Co434      O1255   2.010   1_455  S
O435       Co842   2.087   1_565  S
O435      Co1254   2.010       .  S
C436       O1249   1.261       .  A
C436        C712   1.470       .  S
C437       O1244   1.260       .  A
C437        C723   1.500       .  S
C438        C782   1.475       .  S
C439        C765   1.494       .  S
C440        C754   1.480       .  S
C440        C441   1.390       .  A
C440        C445   1.406       .  A
C441        C442   1.389       .  A
C441        H446   1.084       .  S
C442        C740   1.475       .  S
C442        C443   1.403       .  A
C443        C444   1.412       .  A
C443        H447   1.083       .  S
C444        C695   1.513       .  S
C444        C445   1.416       .  A
C445        H448   1.082       .  S
C449        C810   1.503       .  S
C449        C454   1.404       .  A
C450        H455   1.083       .  S
C451        C793   1.499       .  S
C451        C452   1.404       .  A
C452        C453   1.408       .  A
C452        H456   1.084       .  S
C453        C684   1.501       .  S
C453        C454   1.405       .  A
C454        H457   1.083       .  S
C458        C779   1.509       .  S
C458        C463   1.411       .  A
C459        H464   1.083       .  S
C460        C768   1.496       .  S
C460        C461   1.408       .  A
C461        C462   1.410   1_545  A
C461        H465   1.084       .  S
C462        C667   1.505       .  S
C462        C463   1.414       .  A
C463        H466   1.082       .  S
C467        C726   1.481       .  S
C467        C468   1.401       .  A
C467        C472   1.398       .  A
C468        C469   1.406       .  A
C468        H473   1.083       .  S
C469        C709   1.493       .  S
C469        C470   1.404       .  A
C470        C471   1.405       .  A
C470        H474   1.084       .  S
C471        C653   1.487       .  S
C471        C472   1.401       .  A
C472        H475   1.085       .  S
C476        C639   1.494       .  S
C476        C477   1.403       .  A
C476        C481   1.404       .  A
C477        C478   1.409       .  A
C477        H482   1.083       .  S
C478        C681   1.509       .  S
C479        C480   1.409       .  A
C479        H483   1.080       .  S
C480        C628   1.517       .  S
C481        H484   1.081       .  S
O485        C493   1.269       .  A
O485       Co505   1.976       .  S
O486        C494   1.251       .  A
O486       Co506   1.958       .  S
O487        C495   1.271       .  A
O487       Co507   2.032   1_554  S
O488        C496   1.290       .  A
O488       Co508   2.090   1_554  S
O489        C495   1.255       .  A
O489       Co506   1.953       .  S
O490        C496   1.266       .  A
O490       Co505   1.899       .  S
O491        C494   1.271       .  A
O491       Co508   2.049   1_554  S
O492        C493   1.281       .  A
O492       Co507   2.043   1_554  S
C493        C642   1.495       .  S
C494        C625   1.513       .  S
C495        C583   1.493       .  S
C496        C572   1.484       .  S
O497        C510   1.289       .  A
O497       Co505   2.081   1_556  S
O498        C511   1.272       .  A
O498       Co506   2.027   1_556  S
O499        C512   1.251       .  A
O499       Co507   1.965       .  S
O500        C513   1.268       .  A
O500       Co508   1.976       .  S
O501        C513   1.281       .  A
O501       Co506   2.045   1_556  S
O502        C512   1.267       .  A
O502       Co505   2.047   1_556  S
O503        C510   1.268       .  A
O503       Co508   1.901       .  S
O504        C511   1.255       .  A
O504       Co507   1.950       .  S
Co505       O509   2.025   1_554  S
Co506       O509   2.026   1_554  S
Co507       O509   2.035       .  S
Co508       O509   2.029       .  S
C510        C597   1.483       .  S
C511        C611   1.509       .  S
C512        C555   1.504       .  S
C513        C541   1.500       .  S
C514        C586   1.481       .  S
C514        C515   1.393       .  A
C514       C1339   1.395   1_455  A
C515       C1336   1.400   1_455  A
C515        H520   1.084       .  S
C516        C698   1.488       .  S
C516       C1335   1.400       .  A
C516        C517   1.409       .  A
C517        C518   1.413       .  A
C517        H521   1.080       .  S
C518        C569   1.515       .  S
C518        C519   1.412       .  A
C519       C1334   1.395       .  A
C519        H522   1.081       .  S
C523        C558   1.492       .  S
C523        C524   1.407       .  A
C523        C528   1.402   1_565  A
C524        C525   1.412   1_565  A
C524        H529   1.083       .  S
C525        C670   1.503   1_545  S
C526        C527   1.400       .  A
C526        H530   1.084       .  S
C527        C544   1.489       .  S
C528        H531   1.083       .  S
C532        C614   1.495       .  S
C532        C533   1.406       .  A
C532       C1357   1.400   1_455  A
C533       C1354   1.407   1_455  A
C533        H538   1.082       .  S
C534        C656   1.501       .  S
C534       C1353   1.407       .  A
C534        C535   1.405       .  A
C535        C536   1.398       .  A
C535        H539   1.082       .  S
C536        C600   1.487       .  S
C536        C537   1.399       .  A
C537       C1352   1.400       .  A
C537        H540   1.083       .  S
C541        C542   1.415       .  A
C541        C546   1.422       .  A
C542        C543   1.414       .  A
C542        C547   1.441       .  S
C543        C544   1.408       .  A
C543        C550   1.451       .  S
C544        C545   1.407       .  A
C545        C546   1.412       .  A
C545        C548   1.453       .  S
C546        C549   1.450       .  S
C547        N554   1.154       .  T
C548        N553   1.157       .  T
C549        N551   1.157       .  T
C550        N552   1.157       .  T
C555        C556   1.415       .  A
C555        C560   1.423       .  A
C556        C557   1.417       .  A
C556        C561   1.440       .  S
C557        C558   1.408       .  A
C557        C564   1.451       .  S
C558        C559   1.408       .  A
C559        C560   1.414       .  A
C559        C562   1.451       .  S
C560        C563   1.452       .  S
C561        N568   1.154       .  T
C562        N567   1.157       .  T
C563        N565   1.157       .  T
C564        N566   1.157       .  T
C569        C570   1.431       .  A
C569        C574   1.421       .  A
C570        C571   1.423       .  A
C570        C575   1.447       .  S
C571        C572   1.408       .  A
C571        C578   1.448       .  S
C572        C573   1.397       .  A
C573        C574   1.392       .  A
C573        C576   1.444       .  S
C574        C577   1.451       .  S
C575        N582   1.157       .  T
C576        N581   1.157   1_554  T
C577        N579   1.157       .  T
C578        N580   1.157       .  T
C583        C584   1.425       .  A
C583        C588   1.415       .  A
C584        C585   1.409       .  A
C584        C589   1.453       .  S
C585        C586   1.404       .  A
C585        C592   1.451       .  S
C586        C587   1.413       .  A
C587        C588   1.411       .  A
C587        C590   1.451       .  S
C588        C591   1.451       .  S
C589        N596   1.158       .  T
C590        N595   1.157       .  T
C591        N593   1.157       .  T
C592        N594   1.157       .  T
C597        C598   1.409       .  A
C597        C602   1.414       .  A
C598        C599   1.407       .  A
C598        C603   1.445       .  S
C599        C600   1.413       .  A
C599        C606   1.451       .  S
C600        C601   1.413       .  A
C601        C602   1.407       .  A
C601        C604   1.453       .  S
C602        C605   1.448       .  S
C603        N610   1.156       .  T
C604        N609   1.157       .  T
C605        N607   1.157       .  T
C606        N608   1.157       .  T
C611        C612   1.428       .  A
C611        C616   1.424       .  A
C612        C613   1.409       .  A
C612        C617   1.453       .  S
C613        C614   1.410       .  A
C613        C620   1.454       .  S
C614        C615   1.415       .  A
C615        C616   1.411       .  A
C615        C618   1.453       .  S
C616        C619   1.453       .  S
C617        N624   1.158       .  T
C618        N623   1.157       .  T
C619        N621   1.157       .  T
C620        N622   1.157       .  T
C625        C626   1.425       .  A
C625        C630   1.411       .  A
C626        C627   1.419       .  A
C626        C631   1.452       .  S
C627        C628   1.422       .  A
C627        C634   1.452       .  S
C628        C629   1.418       .  A
C629        C630   1.408       .  A
C629        C632   1.451       .  S
C630        C633   1.439       .  S
C631        N638   1.158       .  T
C632        N637   1.157       .  T
C633        N635   1.154   1_554  T
C634        N636   1.158       .  T
C639        C640   1.411       .  A
C639        C644   1.411       .  A
C640        C641   1.413       .  A
C640        C645   1.451       .  S
C641        C642   1.417       .  A
C641        C648   1.449       .  S
C642        C643   1.411       .  A
C643        C644   1.415       .  A
C643        C646   1.444       .  S
C644        C647   1.448       .  S
C645        N652   1.157       .  T
C646        N651   1.156       .  T
C647        N649   1.157       .  T
C648        N650   1.157       .  T
C653        C654   1.408       .  A
C653       C1478   1.412       .  A
C654        C655   1.403       .  A
C654        C659   1.448       .  S
C655        C656   1.420       .  A
C655        C662   1.453       .  S
C656       C1477   1.422       .  A
C657       C1476   1.422   1_455  A
C657        C658   1.412       .  A
C657        C660   1.451       .  S
C658       C1473   1.412   1_455  A
C658        C661   1.452       .  S
C659        N666   1.156       .  T
C660        N665   1.157       .  T
C661        N663   1.157       .  T
C662        N664   1.158       .  T
C667        C668   1.417       .  A
C668        C669   1.418       .  A
C668        C673   1.447       .  S
C669        C670   1.416       .  A
C669        C676   1.451       .  S
C671        C672   1.411       .  A
C671        C674   1.452       .  S
C672        C675   1.450       .  S
C673        N680   1.156       .  T
C674        N679   1.157       .  T
C675        N677   1.157       .  T
C676        N678   1.157       .  T
C681        C686   1.420       .  A
C682        C683   1.413       .  A
C682        C687   1.451       .  S
C683        C690   1.452       .  S
C684        C685   1.414   1_545  A
C685        C686   1.413       .  A
C685        C688   1.453       .  S
C686        C689   1.449       .  S
C687        N694   1.157       .  T
C688        N693   1.157       .  T
C689        N691   1.157       .  T
C690        N692   1.157       .  T
C695        C696   1.424       .  A
C695       C1520   1.426       .  A
C696        C697   1.411       .  A
C696        C701   1.449       .  S
C697        C698   1.409       .  A
C697        C704   1.453       .  S
C698       C1519   1.407       .  A
C699       C1518   1.407   1_455  A
C699        C700   1.413       .  A
C699        C702   1.452       .  S
C700       C1515   1.426   1_455  A
C700        C703   1.449       .  S
C701        N708   1.157       .  T
C702        N707   1.157       .  T
C703        N705   1.156       .  T
C704        N706   1.157       .  T
C709       C1530   1.416       .  A
C709        C714   1.417       .  A
C710       C1529   1.416       .  A
C710        C711   1.408       .  A
C710        C715   1.452       .  S
C711       C1532   1.412       .  A
C711        C718   1.452       .  S
C712       C1531   1.412       .  A
C712        C713   1.405       .  A
C713        C714   1.408       .  A
C713        C716   1.454       .  S
C714        C717   1.446       .  S
C715        N722   1.157       .  T
C716        N721   1.157       .  T
C717        N719   1.155       .  T
C718        N720   1.157       .  T
C723        C724   1.426       .  A
C723       C1548   1.418       .  A
C724        C725   1.410       .  A
C724        C729   1.450       .  S
C725        C726   1.404       .  A
C725        C732   1.453       .  S
C726       C1547   1.408       .  A
C727       C1546   1.408       .  A
C727        C728   1.412       .  A
C727        C730   1.452       .  S
C728       C1543   1.418       .  A
C728        C731   1.447       .  S
C729        N736   1.157       .  T
C730        N735   1.157       .  T
C731        N733   1.156       .  T
C732        N734   1.157       .  T
C737       C1242   1.473       .  S
C737        C738   1.416       .  A
C737       C1562   1.407       .  A
C738        C739   1.405       .  A
C738        C743   1.453       .  S
C739        C740   1.410       .  A
C739        C746   1.452       .  S
C740       C1561   1.410       .  A
C741       C1560   1.410       .  A
C741        C742   1.405       .  A
C741        C744   1.450       .  S
C742       C1557   1.407       .  A
C742        C745   1.446       .  S
C743        N750   1.158       .  T
C744        N749   1.157       .  T
C745        N747   1.156       .  T
C746        N748   1.157       .  T
C751        C752   1.411       .  A
C751       C1576   1.415       .  A
C752        C753   1.406       .  A
C752        C757   1.443       .  S
C753        C754   1.409       .  A
C753        C760   1.452       .  S
C754       C1575   1.409       .  A
C755       C1574   1.409       .  A
C755        C756   1.410       .  A
C755        C758   1.451       .  S
C756       C1571   1.415   1_455  A
C756        C759   1.451       .  S
C757        N764   1.155       .  T
C758        N763   1.157       .  T
C759        N761   1.157       .  T
C760        N762   1.157       .  T
C765        C766   1.416       .  A
C766        C767   1.415       .  A
C766        C771   1.449       .  S
C767        C774   1.450       .  S
C768        C769   1.411   1_545  A
C769        C770   1.410       .  A
C769        C772   1.451       .  S
C770        C773   1.443       .  S
C771        N778   1.157       .  T
C772        N777   1.157       .  T
C773        N775   1.154       .  T
C774        N776   1.157       .  T
C779        C780   1.423       .  A
C780        C781   1.407       .  A
C780        C785   1.453       .  S
C781        C782   1.407       .  A
C781        C788   1.453       .  S
C783        C784   1.415       .  A
C783        C786   1.452       .  S
C784        C787   1.447       .  S
C785        N792   1.157       .  T
C786        N791   1.157       .  T
C787        N789   1.157       .  T
C788        N790   1.157       .  T
C793        C798   1.409   1_545  A
C794        C795   1.417       .  A
C794        C799   1.450       .  S
C795        C796   1.417       .  A
C795        C802   1.447       .  S
C797        C798   1.415       .  A
C797        C800   1.447       .  S
C798        C801   1.454       .  S
C799        N806   1.157       .  T
C800        N805   1.157       .  T
C801        N803   1.157       .  T
C802        N804   1.156       .  T
C807        C808   1.411   1_545  A
C808        C809   1.414       .  A
C808        C813   1.452       .  S
C809        C810   1.420   1_565  A
C809        C816   1.451       .  S
C811        C812   1.413       .  A
C811        C814   1.452       .  S
C812        C815   1.451       .  S
C813        N820   1.157       .  T
C814        N819   1.157       .  T
C815        N817   1.157       .  T
C816        N818   1.157       .  T
O821        C829   1.245       .  A
O821       Co841   1.963       .  S
O822        C830   1.272       .  A
O822       Co842   1.914       .  S
O823        C831   1.285       .  A
O823       Co843   1.893       .  S
O824        C832   1.274       .  A
O824       Co844   2.019       .  S
O825       Co842   2.081       .  S
O826       Co841   1.953       .  S
O827       C1240   1.295       .  A
O827       Co844   2.085       .  S
O828       C1239   1.258   1_545  A
O828       Co843   2.017       .  S
C829       O1238   1.258       .  A
C829       C1217   1.485       .  S
C830       O1237   1.295   1_545  A
C830       C1206   1.507       .  S
C831       C1161   1.481       .  S
O833        C846   1.257   1_655  A
O833       Co841   1.974       .  S
O834       Co842   2.004       .  S
O835       C1258   1.285   1_545  A
O835       Co843   2.026       .  S
O836       C1259   1.268       .  A
O836       Co844   1.907       .  S
O837        C849   1.294   1_545  A
O837       Co842   2.098       .  S
O838        C848   1.272       .  A
O838       Co841   1.962       .  S
O839       Co844   1.985       .  S
O840        C847   1.252   1_655  A
O840       Co843   1.971       .  S
Co841       O845   2.039       .  S
Co843      O1255   1.888   1_545  S
O845      Co1253   1.888       .  S
C846       C1122   1.470       .  S
C847       C1133   1.500       .  S
C848       O1245   1.285       .  A
C848       C1192   1.475       .  S
C849       O1246   1.268       .  A
C849       C1175   1.494       .  S
C850       C1164   1.480       .  S
C850        C851   1.390       .  A
C850        C855   1.406       .  A
C851        C852   1.389       .  A
C851        H856   1.084       .  S
C852       C1150   1.475       .  S
C852        C853   1.403   1_455  A
C853        C854   1.412   1_655  A
C853        H857   1.083       .  S
C854       C1105   1.513   1_455  S
C854        C855   1.416       .  A
C855        H858   1.082       .  S
C859       C1220   1.503       .  S
C859       C1270   1.410       .  A
C859        C864   1.404       .  A
C860       C1269   1.410       .  A
C860       C1271   1.408       .  A
C860        H865   1.083       .  S
C861       C1203   1.499       .  S
C861       C1270   1.408       .  A
C861        C862   1.404       .  A
C862        C863   1.408       .  A
C862        H866   1.084       .  S
C863       C1094   1.501       .  S
C863        C864   1.405       .  A
C864        H867   1.083       .  S
C868       C1189   1.509       .  S
C868       C1279   1.405       .  A
C868        C873   1.411       .  A
C869       C1278   1.405   1_545  A
C869       C1280   1.397       .  A
C869        H874   1.083       .  S
C870       C1178   1.496       .  S
C870       C1279   1.397       .  A
C870        C871   1.408       .  A
C871        C872   1.410       .  A
C871        H875   1.084       .  S
C872       C1077   1.505       .  S
C872        C873   1.414       .  A
C873        H876   1.082       .  S
C877       C1136   1.481   1_655  S
C877        C878   1.401   1_655  A
C877        C882   1.398       .  A
C878        C879   1.406       .  A
C878        H883   1.083       .  S
C879       C1119   1.493       .  S
C879        C880   1.404       .  A
C880        C881   1.405   1_455  A
C880        H884   1.084       .  S
C881       C1063   1.487       .  S
C881        C882   1.401       .  A
C882        H885   1.085       .  S
C886       C1049   1.494       .  S
C886        C887   1.403       .  A
C886        C891   1.404       .  A
C887        C888   1.409       .  A
C887        H892   1.083       .  S
C888       C1091   1.509       .  S
C888       C1299   1.410       .  A
C889       C1298   1.410   1_545  A
C889        C890   1.409       .  A
C889        H893   1.079       .  S
C890       C1038   1.517       .  S
C890       C1301   1.412   1_545  A
C891       C1300   1.412       .  A
C891        H894   1.081       .  S
O895        C903   1.269       .  A
O895       Co915   1.976       .  S
O896        C904   1.251       .  A
O896       Co916   1.958       .  S
O897        C905   1.271       .  A
O897       Co917   2.032   1_554  S
O898        C906   1.290       .  A
O898       Co918   2.090   1_554  S
O899        C905   1.255       .  A
O899       Co916   1.953       .  S
O900        C906   1.266       .  A
O900       Co915   1.899       .  S
O901        C904   1.271       .  A
O901       Co918   2.049   1_554  S
O902        C903   1.281       .  A
O902       Co917   2.043   1_554  S
C903       C1052   1.495       .  S
C904       C1035   1.513       .  S
C905        C993   1.493       .  S
C906        C982   1.484       .  S
O907        C920   1.289       .  A
O907       Co915   2.081   1_556  S
O908        C921   1.272       .  A
O908       Co916   2.027   1_556  S
O909        C922   1.251       .  A
O909       Co917   1.965       .  S
O910        C923   1.268       .  A
O910       Co918   1.976       .  S
O911        C923   1.281       .  A
O911       Co916   2.045   1_556  S
O912        C922   1.267       .  A
O912       Co915   2.047   1_556  S
O913        C920   1.268       .  A
O913       Co918   1.901       .  S
O914        C921   1.255       .  A
O914       Co917   1.950       .  S
Co915       O919   2.025   1_554  S
Co916       O919   2.026   1_554  S
Co917       O919   2.035       .  S
Co918       O919   2.029       .  S
C920       C1007   1.483       .  S
C921       C1021   1.509       .  S
C922        C965   1.504       .  S
C923        C951   1.500       .  S
C924        C996   1.481       .  S
C924        C925   1.393       .  A
C925        H930   1.084       .  S
C926       C1108   1.488       .  S
C926        C927   1.409       .  A
C927        C928   1.413       .  A
C927        H931   1.080       .  S
C928        C979   1.515       .  S
C928        C929   1.412       .  A
C929        H932   1.081       .  S
C933        C968   1.492       .  S
C933        C934   1.407       .  A
C933        C938   1.402       .  A
C934        C935   1.412       .  A
C934        H939   1.083       .  S
C935       C1080   1.503       .  S
C935       C1346   1.407       .  A
C936       C1345   1.407       .  A
C936        C937   1.400       .  A
C936        H940   1.084       .  S
C937        C954   1.489       .  S
C937       C1348   1.403       .  A
C938       C1347   1.403       .  A
C938        H941   1.083       .  S
C942       C1024   1.495       .  S
C942        C943   1.406       .  A
C943        H948   1.082       .  S
C944       C1066   1.501       .  S
C944        C945   1.405       .  A
C945        C946   1.398       .  A
C945        H949   1.082       .  S
C946       C1010   1.487       .  S
C946        C947   1.399       .  A
C947        H950   1.083       .  S
C951        C952   1.415       .  A
C951        C956   1.422       .  A
C952        C953   1.414       .  A
C952        C957   1.441       .  S
C953        C954   1.408       .  A
C953        C960   1.451       .  S
C954        C955   1.407       .  A
C955        C956   1.412       .  A
C955        C958   1.453       .  S
C956        C959   1.450       .  S
C957        N964   1.154       .  T
C958        N963   1.157       .  T
C959        N961   1.157       .  T
C960        N962   1.157       .  T
C965        C966   1.415       .  A
C965        C970   1.423       .  A
C966        C967   1.417       .  A
C966        C971   1.440       .  S
C967        C968   1.408       .  A
C967        C974   1.451       .  S
C968        C969   1.408       .  A
C969        C970   1.414       .  A
C969        C972   1.451       .  S
C970        C973   1.452       .  S
C971        N978   1.154       .  T
C972        N977   1.157       .  T
C973        N975   1.157       .  T
C974        N976   1.157       .  T
C979        C980   1.431       .  A
C979        C984   1.421       .  A
C980        C981   1.423       .  A
C980        C985   1.447       .  S
C981        C982   1.408       .  A
C981        C988   1.448       .  S
C982        C983   1.397       .  A
C983        C984   1.392       .  A
C983        C986   1.444       .  S
C984        C987   1.451       .  S
C985        N992   1.157       .  T
C986        N991   1.157   1_554  T
C987        N989   1.157       .  T
C988        N990   1.157       .  T
C993        C994   1.425       .  A
C993        C998   1.415       .  A
C994        C995   1.409       .  A
C994        C999   1.453       .  S
C995        C996   1.404       .  A
C995       C1002   1.451       .  S
C996        C997   1.413       .  A
C997        C998   1.411       .  A
C997       C1000   1.451       .  S
C998       C1001   1.451       .  S
C999       N1006   1.158       .  T
C1000      N1005   1.157       .  T
C1001      N1003   1.157       .  T
C1002      N1004   1.157       .  T
C1007      C1008   1.409       .  A
C1007      C1012   1.414       .  A
C1008      C1009   1.407       .  A
C1008      C1013   1.445       .  S
C1009      C1010   1.413       .  A
C1009      C1016   1.451       .  S
C1010      C1011   1.413       .  A
C1011      C1012   1.407       .  A
C1011      C1014   1.453       .  S
C1012      C1015   1.448       .  S
C1013      N1020   1.156       .  T
C1014      N1019   1.157       .  T
C1015      N1017   1.157       .  T
C1016      N1018   1.157       .  T
C1021      C1022   1.428       .  A
C1021      C1026   1.424       .  A
C1022      C1023   1.409       .  A
C1022      C1027   1.453       .  S
C1023      C1024   1.410       .  A
C1023      C1030   1.454       .  S
C1024      C1025   1.415       .  A
C1025      C1026   1.411       .  A
C1025      C1028   1.453       .  S
C1026      C1029   1.453       .  S
C1027      N1034   1.158       .  T
C1028      N1033   1.157       .  T
C1029      N1031   1.157       .  T
C1030      N1032   1.157       .  T
C1035      C1036   1.425       .  A
C1035      C1040   1.411       .  A
C1036      C1037   1.419       .  A
C1036      C1041   1.452       .  S
C1037      C1038   1.422       .  A
C1037      C1044   1.452       .  S
C1038      C1039   1.418       .  A
C1039      C1040   1.407       .  A
C1039      C1042   1.451       .  S
C1040      C1043   1.439       .  S
C1041      N1048   1.158       .  T
C1042      N1047   1.157       .  T
C1043      N1045   1.154   1_554  T
C1044      N1046   1.158       .  T
C1049      C1050   1.411       .  A
C1049      C1054   1.411       .  A
C1050      C1051   1.413       .  A
C1050      C1055   1.451       .  S
C1051      C1052   1.417       .  A
C1051      C1058   1.449       .  S
C1052      C1053   1.411       .  A
C1053      C1054   1.415       .  A
C1053      C1056   1.444       .  S
C1054      C1057   1.448       .  S
C1055      N1062   1.157       .  T
C1056      N1061   1.156       .  T
C1057      N1059   1.157       .  T
C1058      N1060   1.157       .  T
C1063      C1064   1.408       .  A
C1064      C1065   1.403       .  A
C1064      C1069   1.448       .  S
C1065      C1066   1.420       .  A
C1065      C1072   1.453       .  S
C1067      C1068   1.412       .  A
C1067      C1070   1.451       .  S
C1068      C1071   1.452       .  S
C1069      N1076   1.156       .  T
C1070      N1075   1.157       .  T
C1071      N1073   1.157       .  T
C1072      N1074   1.158       .  T
C1077      C1078   1.417       .  A
C1077      C1492   1.414       .  A
C1078      C1079   1.418       .  A
C1078      C1083   1.447       .  S
C1079      C1080   1.416       .  A
C1079      C1086   1.451       .  S
C1080      C1491   1.416       .  A
C1081      C1490   1.416   1_545  A
C1081      C1082   1.411       .  A
C1081      C1084   1.452       .  S
C1082      C1487   1.414   1_545  A
C1082      C1085   1.450       .  S
C1083      N1090   1.156       .  T
C1084      N1089   1.157       .  T
C1085      N1087   1.157       .  T
C1086      N1088   1.157       .  T
C1091      C1502   1.420       .  A
C1091      C1096   1.420       .  A
C1092      C1501   1.420   1_545  A
C1092      C1093   1.413       .  A
C1092      C1097   1.451       .  S
C1093      C1504   1.415       .  A
C1093      C1100   1.452       .  S
C1094      C1503   1.415       .  A
C1094      C1095   1.414       .  A
C1095      C1096   1.413       .  A
C1095      C1098   1.453       .  S
C1096      C1099   1.449       .  S
C1097      N1104   1.157       .  T
C1098      N1103   1.157       .  T
C1099      N1101   1.157       .  T
C1100      N1102   1.157       .  T
C1105      C1106   1.424       .  A
C1106      C1107   1.411       .  A
C1106      C1111   1.449       .  S
C1107      C1108   1.409       .  A
C1107      C1114   1.453       .  S
C1109      C1110   1.413       .  A
C1109      C1112   1.452       .  S
C1110      C1113   1.449       .  S
C1111      N1118   1.157       .  T
C1112      N1117   1.157       .  T
C1113      N1115   1.156       .  T
C1114      N1116   1.157       .  T
C1119      C1124   1.417   1_455  A
C1120      C1121   1.408       .  A
C1120      C1125   1.452       .  S
C1121      C1128   1.452       .  S
C1122      C1123   1.405   1_455  A
C1123      C1124   1.408       .  A
C1123      C1126   1.454       .  S
C1124      C1127   1.446       .  S
C1125      N1132   1.157       .  T
C1126      N1131   1.157       .  T
C1127      N1129   1.155       .  T
C1128      N1130   1.157       .  T
C1133      C1134   1.426   1_455  A
C1134      C1135   1.410       .  A
C1134      C1139   1.450       .  S
C1135      C1136   1.404   1_655  A
C1135      C1142   1.453       .  S
C1137      C1138   1.412       .  A
C1137      C1140   1.452       .  S
C1138      C1141   1.447       .  S
C1139      N1146   1.157       .  T
C1140      N1145   1.157       .  T
C1141      N1143   1.156       .  T
C1142      N1144   1.157       .  T
C1147      C1148   1.416   1_455  A
C1148      C1149   1.405       .  A
C1148      C1153   1.453       .  S
C1149      C1150   1.410   1_655  A
C1149      C1156   1.452       .  S
C1151      C1152   1.405       .  A
C1151      C1154   1.450       .  S
C1152      C1155   1.446       .  S
C1153      N1160   1.158       .  T
C1154      N1159   1.157       .  T
C1155      N1157   1.156       .  T
C1156      N1158   1.157       .  T
C1161      C1162   1.411       .  A
C1162      C1163   1.406       .  A
C1162      C1167   1.443       .  S
C1163      C1164   1.409   1_655  A
C1163      C1170   1.452       .  S
C1165      C1166   1.410       .  A
C1165      C1168   1.451       .  S
C1166      C1169   1.451       .  S
C1167      N1174   1.155       .  T
C1168      N1173   1.157       .  T
C1169      N1171   1.157       .  T
C1170      N1172   1.157       .  T
C1175      C1176   1.416   1_565  A
C1175      C1590   1.412       .  A
C1176      C1177   1.415       .  A
C1176      C1181   1.449       .  S
C1177      C1588   1.414       .  A
C1177      C1184   1.450       .  S
C1178      C1587   1.414       .  A
C1178      C1179   1.411       .  A
C1179      C1180   1.410       .  A
C1179      C1182   1.451       .  S
C1180      C1585   1.412       .  A
C1180      C1183   1.443       .  S
C1181      N1188   1.157       .  T
C1182      N1187   1.157       .  T
C1183      N1185   1.154       .  T
C1184      N1186   1.157       .  T
C1189      C1190   1.423       .  A
C1189      C1604   1.423       .  A
C1190      C1191   1.407       .  A
C1190      C1195   1.453       .  S
C1191      C1192   1.407       .  A
C1191      C1198   1.453       .  S
C1192      C1603   1.406       .  A
C1193      C1602   1.406   1_545  A
C1193      C1194   1.415       .  A
C1193      C1196   1.452       .  S
C1194      C1599   1.423   1_545  A
C1194      C1197   1.447       .  S
C1195      N1202   1.157       .  T
C1196      N1201   1.157       .  T
C1197      N1199   1.157       .  T
C1198      N1200   1.157       .  T
C1203      C1614   1.413       .  A
C1203      C1208   1.409       .  A
C1204      C1613   1.413       .  A
C1204      C1205   1.417       .  A
C1204      C1209   1.450       .  S
C1205      C1206   1.417       .  A
C1205      C1212   1.447       .  S
C1206      C1617   1.424   1_545  A
C1207      C1616   1.424       .  A
C1207      C1208   1.415       .  A
C1207      C1210   1.447       .  S
C1208      C1211   1.454       .  S
C1209      N1216   1.157       .  T
C1210      N1215   1.157       .  T
C1211      N1213   1.157       .  T
C1212      N1214   1.156       .  T
C1217      C1218   1.411       .  A
C1217      C1632   1.414       .  A
C1218      C1219   1.414       .  A
C1218      C1223   1.452       .  S
C1219      C1220   1.420       .  A
C1219      C1226   1.451       .  S
C1220      C1631   1.416       .  A
C1221      C1630   1.416       .  A
C1221      C1222   1.413       .  A
C1221      C1224   1.452       .  S
C1222      C1627   1.414       .  A
C1222      C1225   1.451       .  S
C1223      N1230   1.157       .  T
C1224      N1229   1.157       .  T
C1225      N1227   1.157       .  T
C1226      N1228   1.157       .  T
O1231      C1239   1.245       .  A
O1231     Co1251   1.963       .  S
O1232      C1240   1.272       .  A
O1232     Co1252   1.914       .  S
O1233      C1241   1.285       .  A
O1233     Co1253   1.893       .  S
O1234      C1242   1.274       .  A
O1234     Co1254   2.019       .  S
O1235     Co1252   2.081       .  S
O1236     Co1251   1.953       .  S
O1237     Co1254   2.085       .  S
O1238     Co1253   2.017       .  S
C1239      C1627   1.485   1_565  S
C1240      C1616   1.507       .  S
C1241      C1571   1.481       .  S
O1243      C1256   1.257   1_655  A
O1243     Co1251   1.974       .  S
O1244     Co1252   2.004       .  S
O1245     Co1253   2.026       .  S
O1246     Co1254   1.907       .  S
O1247      C1259   1.294       .  A
O1247     Co1252   2.098       .  S
O1248      C1258   1.272       .  A
O1248     Co1251   1.962       .  S
O1249     Co1254   1.985       .  S
O1250      C1257   1.252   1_655  A
O1250     Co1253   1.971       .  S
Co1251     O1255   2.039       .  S
C1256      C1532   1.470       .  S
C1257      C1543   1.500       .  S
C1258      C1602   1.475       .  S
C1259      C1585   1.494       .  S
C1260      C1574   1.480       .  S
C1260      C1261   1.390       .  A
C1260      C1265   1.406       .  A
C1261      C1262   1.389       .  A
C1261      H1266   1.084       .  S
C1262      C1560   1.475       .  S
C1262      C1263   1.403   1_455  A
C1263      C1264   1.412   1_655  A
C1263      H1267   1.083       .  S
C1264      C1515   1.513   1_455  S
C1264      C1265   1.416       .  A
C1265      H1268   1.082       .  S
C1269      C1630   1.503       .  S
C1269      C1274   1.404       .  A
C1270      H1275   1.083       .  S
C1271      C1613   1.499       .  S
C1271      C1272   1.404       .  A
C1272      C1273   1.408       .  A
C1272      H1276   1.084       .  S
C1273      C1504   1.501       .  S
C1273      C1274   1.405       .  A
C1274      H1277   1.083       .  S
C1278      C1599   1.509       .  S
C1278      C1283   1.411       .  A
C1279      H1284   1.083       .  S
C1280      C1588   1.496       .  S
C1280      C1281   1.408       .  A
C1281      C1282   1.410   1_545  A
C1281      H1285   1.084       .  S
C1282      C1487   1.505       .  S
C1282      C1283   1.414       .  A
C1283      H1286   1.082       .  S
C1287      C1546   1.481   1_655  S
C1287      C1288   1.401   1_655  A
C1287      C1292   1.398       .  A
C1288      C1289   1.406       .  A
C1288      H1293   1.083       .  S
C1289      C1529   1.493       .  S
C1289      C1290   1.404       .  A
C1290      C1291   1.405   1_455  A
C1290      H1294   1.084       .  S
C1291      C1473   1.487       .  S
C1291      C1292   1.401       .  A
C1292      H1295   1.085       .  S
C1296      C1459   1.494       .  S
C1296      C1297   1.403       .  A
C1296      C1301   1.404       .  A
C1297      C1298   1.409       .  A
C1297      H1302   1.083       .  S
C1298      C1501   1.509       .  S
C1299      C1300   1.409       .  A
C1299      H1303   1.080       .  S
C1300      C1448   1.517       .  S
C1301      H1304   1.081       .  S
O1305      C1313   1.269       .  A
O1305     Co1325   1.976       .  S
O1306      C1314   1.251       .  A
O1306     Co1326   1.958       .  S
O1307      C1315   1.271       .  A
O1307     Co1327   2.032   1_554  S
O1308      C1316   1.290       .  A
O1308     Co1328   2.090   1_554  S
O1309      C1315   1.255       .  A
O1309     Co1326   1.953       .  S
O1310      C1316   1.266       .  A
O1310     Co1325   1.899       .  S
O1311      C1314   1.271       .  A
O1311     Co1328   2.049   1_554  S
O1312      C1313   1.281       .  A
O1312     Co1327   2.043   1_554  S
C1313      C1462   1.495       .  S
C1314      C1445   1.513       .  S
C1315      C1403   1.493       .  S
C1316      C1392   1.484       .  S
O1317      C1330   1.289       .  A
O1317     Co1325   2.081   1_556  S
O1318      C1331   1.272       .  A
O1318     Co1326   2.027   1_556  S
O1319      C1332   1.251       .  A
O1319     Co1327   1.965       .  S
O1320      C1333   1.268       .  A
O1320     Co1328   1.976       .  S
O1321      C1333   1.281       .  A
O1321     Co1326   2.045   1_556  S
O1322      C1332   1.267       .  A
O1322     Co1325   2.047   1_556  S
O1323      C1330   1.268       .  A
O1323     Co1328   1.901       .  S
O1324      C1331   1.255       .  A
O1324     Co1327   1.950       .  S
Co1325     O1329   2.025   1_554  S
Co1326     O1329   2.026   1_554  S
Co1327     O1329   2.035       .  S
Co1328     O1329   2.029       .  S
C1330      C1417   1.483       .  S
C1331      C1431   1.509       .  S
C1332      C1375   1.504       .  S
C1333      C1361   1.500       .  S
C1334      C1406   1.481       .  S
C1334      C1335   1.393       .  A
C1335      H1340   1.084       .  S
C1336      C1518   1.488       .  S
C1336      C1337   1.409       .  A
C1337      C1338   1.413       .  A
C1337      H1341   1.080       .  S
C1338      C1389   1.515       .  S
C1338      C1339   1.412       .  A
C1339      H1342   1.081       .  S
C1343      C1378   1.492       .  S
C1343      C1344   1.407       .  A
C1343      C1348   1.402   1_565  A
C1344      C1345   1.412   1_565  A
C1344      H1349   1.083       .  S
C1345      C1490   1.503   1_545  S
C1346      C1347   1.400       .  A
C1346      H1350   1.084       .  S
C1347      C1364   1.489       .  S
C1348      H1351   1.083       .  S
C1352      C1434   1.495       .  S
C1352      C1353   1.406       .  A
C1353      H1358   1.082       .  S
C1354      C1476   1.501       .  S
C1354      C1355   1.405       .  A
C1355      C1356   1.398       .  A
C1355      H1359   1.082       .  S
C1356      C1420   1.487       .  S
C1356      C1357   1.399       .  A
C1357      H1360   1.083       .  S
C1361      C1362   1.415       .  A
C1361      C1366   1.422       .  A
C1362      C1363   1.414       .  A
C1362      C1367   1.441       .  S
C1363      C1364   1.408       .  A
C1363      C1370   1.451       .  S
C1364      C1365   1.407       .  A
C1365      C1366   1.412       .  A
C1365      C1368   1.453       .  S
C1366      C1369   1.450       .  S
C1367      N1374   1.154       .  T
C1368      N1373   1.157       .  T
C1369      N1371   1.157       .  T
C1370      N1372   1.157       .  T
C1375      C1376   1.415       .  A
C1375      C1380   1.423       .  A
C1376      C1377   1.417       .  A
C1376      C1381   1.440       .  S
C1377      C1378   1.408       .  A
C1377      C1384   1.451       .  S
C1378      C1379   1.408       .  A
C1379      C1380   1.414       .  A
C1379      C1382   1.451       .  S
C1380      C1383   1.452       .  S
C1381      N1388   1.154       .  T
C1382      N1387   1.157       .  T
C1383      N1385   1.157       .  T
C1384      N1386   1.157       .  T
C1389      C1390   1.431       .  A
C1389      C1394   1.421       .  A
C1390      C1391   1.423       .  A
C1390      C1395   1.447       .  S
C1391      C1392   1.408       .  A
C1391      C1398   1.448       .  S
C1392      C1393   1.397       .  A
C1393      C1394   1.392       .  A
C1393      C1396   1.444       .  S
C1394      C1397   1.451       .  S
C1395      N1402   1.157       .  T
C1396      N1401   1.157   1_554  T
C1397      N1399   1.157       .  T
C1398      N1400   1.157       .  T
C1403      C1404   1.425       .  A
C1403      C1408   1.415       .  A
C1404      C1405   1.409       .  A
C1404      C1409   1.453       .  S
C1405      C1406   1.404       .  A
C1405      C1412   1.451       .  S
C1406      C1407   1.413       .  A
C1407      C1408   1.411       .  A
C1407      C1410   1.451       .  S
C1408      C1411   1.451       .  S
C1409      N1416   1.158       .  T
C1410      N1415   1.157       .  T
C1411      N1413   1.157       .  T
C1412      N1414   1.157       .  T
C1417      C1418   1.409       .  A
C1417      C1422   1.414       .  A
C1418      C1419   1.407       .  A
C1418      C1423   1.445       .  S
C1419      C1420   1.413       .  A
C1419      C1426   1.451       .  S
C1420      C1421   1.413       .  A
C1421      C1422   1.407       .  A
C1421      C1424   1.453       .  S
C1422      C1425   1.448       .  S
C1423      N1430   1.156       .  T
C1424      N1429   1.157       .  T
C1425      N1427   1.157       .  T
C1426      N1428   1.157       .  T
C1431      C1432   1.428       .  A
C1431      C1436   1.424       .  A
C1432      C1433   1.409       .  A
C1432      C1437   1.453       .  S
C1433      C1434   1.410       .  A
C1433      C1440   1.454       .  S
C1434      C1435   1.415       .  A
C1435      C1436   1.411       .  A
C1435      C1438   1.453       .  S
C1436      C1439   1.453       .  S
C1437      N1444   1.158       .  T
C1438      N1443   1.157       .  T
C1439      N1441   1.157       .  T
C1440      N1442   1.157       .  T
C1445      C1446   1.425       .  A
C1445      C1450   1.411       .  A
C1446      C1447   1.419       .  A
C1446      C1451   1.452       .  S
C1447      C1448   1.422       .  A
C1447      C1454   1.452       .  S
C1448      C1449   1.418       .  A
C1449      C1450   1.408       .  A
C1449      C1452   1.451       .  S
C1450      C1453   1.439       .  S
C1451      N1458   1.158       .  T
C1452      N1457   1.157       .  T
C1453      N1455   1.154   1_554  T
C1454      N1456   1.158       .  T
C1459      C1460   1.411       .  A
C1459      C1464   1.411       .  A
C1460      C1461   1.413       .  A
C1460      C1465   1.451       .  S
C1461      C1462   1.417       .  A
C1461      C1468   1.449       .  S
C1462      C1463   1.411       .  A
C1463      C1464   1.415       .  A
C1463      C1466   1.444       .  S
C1464      C1467   1.448       .  S
C1465      N1472   1.157       .  T
C1466      N1471   1.156       .  T
C1467      N1469   1.157       .  T
C1468      N1470   1.157       .  T
C1473      C1474   1.408       .  A
C1474      C1475   1.403       .  A
C1474      C1479   1.448       .  S
C1475      C1476   1.420       .  A
C1475      C1482   1.453       .  S
C1477      C1478   1.412       .  A
C1477      C1480   1.451       .  S
C1478      C1481   1.452       .  S
C1479      N1486   1.156       .  T
C1480      N1485   1.157       .  T
C1481      N1483   1.157       .  T
C1482      N1484   1.158       .  T
C1487      C1488   1.417       .  A
C1488      C1489   1.418       .  A
C1488      C1493   1.447       .  S
C1489      C1490   1.416       .  A
C1489      C1496   1.451       .  S
C1491      C1492   1.411       .  A
C1491      C1494   1.452       .  S
C1492      C1495   1.450       .  S
C1493      N1500   1.156       .  T
C1494      N1499   1.157       .  T
C1495      N1497   1.157       .  T
C1496      N1498   1.157       .  T
C1501      C1506   1.420       .  A
C1502      C1503   1.413       .  A
C1502      C1507   1.451       .  S
C1503      C1510   1.452       .  S
C1504      C1505   1.414   1_545  A
C1505      C1506   1.413       .  A
C1505      C1508   1.453       .  S
C1506      C1509   1.449       .  S
C1507      N1514   1.157       .  T
C1508      N1513   1.157       .  T
C1509      N1511   1.157       .  T
C1510      N1512   1.157       .  T
C1515      C1516   1.424       .  A
C1516      C1517   1.411       .  A
C1516      C1521   1.449       .  S
C1517      C1518   1.409       .  A
C1517      C1524   1.453       .  S
C1519      C1520   1.413       .  A
C1519      C1522   1.452       .  S
C1520      C1523   1.449       .  S
C1521      N1528   1.157       .  T
C1522      N1527   1.157       .  T
C1523      N1525   1.156       .  T
C1524      N1526   1.157       .  T
C1529      C1534   1.417   1_455  A
C1530      C1531   1.408       .  A
C1530      C1535   1.452       .  S
C1531      C1538   1.452       .  S
C1532      C1533   1.405   1_455  A
C1533      C1534   1.408       .  A
C1533      C1536   1.454       .  S
C1534      C1537   1.446       .  S
C1535      N1542   1.157       .  T
C1536      N1541   1.157       .  T
C1537      N1539   1.155       .  T
C1538      N1540   1.157       .  T
C1543      C1544   1.426   1_455  A
C1544      C1545   1.410       .  A
C1544      C1549   1.450       .  S
C1545      C1546   1.404   1_655  A
C1545      C1552   1.453       .  S
C1547      C1548   1.412       .  A
C1547      C1550   1.452       .  S
C1548      C1551   1.447       .  S
C1549      N1556   1.157       .  T
C1550      N1555   1.157       .  T
C1551      N1553   1.156       .  T
C1552      N1554   1.157       .  T
C1557      C1558   1.416   1_455  A
C1558      C1559   1.405       .  A
C1558      C1563   1.453       .  S
C1559      C1560   1.410   1_655  A
C1559      C1566   1.452       .  S
C1561      C1562   1.405       .  A
C1561      C1564   1.450       .  S
C1562      C1565   1.446       .  S
C1563      N1570   1.158       .  T
C1564      N1569   1.157       .  T
C1565      N1567   1.156       .  T
C1566      N1568   1.157       .  T
C1571      C1572   1.411       .  A
C1572      C1573   1.406       .  A
C1572      C1577   1.443       .  S
C1573      C1574   1.409   1_655  A
C1573      C1580   1.452       .  S
C1575      C1576   1.410       .  A
C1575      C1578   1.451       .  S
C1576      C1579   1.451       .  S
C1577      N1584   1.155       .  T
C1578      N1583   1.157       .  T
C1579      N1581   1.157       .  T
C1580      N1582   1.157       .  T
C1585      C1586   1.416       .  A
C1586      C1587   1.415       .  A
C1586      C1591   1.449       .  S
C1587      C1594   1.450       .  S
C1588      C1589   1.411   1_545  A
C1589      C1590   1.410       .  A
C1589      C1592   1.451       .  S
C1590      C1593   1.443       .  S
C1591      N1598   1.157       .  T
C1592      N1597   1.157       .  T
C1593      N1595   1.154       .  T
C1594      N1596   1.157       .  T
C1599      C1600   1.423       .  A
C1600      C1601   1.407       .  A
C1600      C1605   1.453       .  S
C1601      C1602   1.407       .  A
C1601      C1608   1.453       .  S
C1603      C1604   1.415       .  A
C1603      C1606   1.452       .  S
C1604      C1607   1.447       .  S
C1605      N1612   1.157       .  T
C1606      N1611   1.157       .  T
C1607      N1609   1.157       .  T
C1608      N1610   1.157       .  T
C1613      C1618   1.409   1_545  A
C1614      C1615   1.417       .  A
C1614      C1619   1.450       .  S
C1615      C1616   1.417       .  A
C1615      C1622   1.447       .  S
C1617      C1618   1.415       .  A
C1617      C1620   1.447       .  S
C1618      C1621   1.454       .  S
C1619      N1626   1.157       .  T
C1620      N1625   1.157       .  T
C1621      N1623   1.157       .  T
C1622      N1624   1.156       .  T
C1627      C1628   1.411   1_545  A
C1628      C1629   1.414       .  A
C1628      C1633   1.452       .  S
C1629      C1630   1.420   1_565  A
C1629      C1636   1.451       .  S
C1631      C1632   1.413       .  A
C1631      C1634   1.452       .  S
C1632      C1635   1.451       .  S
C1633      N1640   1.157       .  T
C1634      N1639   1.157       .  T
C1635      N1637   1.157       .  T
C1636      N1638   1.157       .  T
