geometry optimzed in LAMMPS
_audit_creation_date              2020-11-30 
_audit_creation_method            'lammps2cif' 
_symmetry_space_group_name_H-M    'P1' 
_symmetry_Int_Tables_number       1 
_symmetry_cell_setting            triclinic 
loop_ 
_symmetry_equiv_pos_as_xyz 
  x,y,z 
_cell_length_a                    40.54733325 
_cell_length_b                    40.52056626091966 
_cell_length_c                    39.66250810093868 
_cell_angle_alpha                 89.96469929397881 
_cell_angle_beta                  89.93176935940507 
_cell_angle_gamma                 90.03921516388408 
loop_ 
_atom_site_label 
_atom_site_type_symbol 
_atom_site_fract_x 
_atom_site_fract_y 
_atom_site_fract_z 
_atom_site_charge 
C1          C  0.48579456  0.23754850  0.27674082     0.79900
N2          N  0.48518671  0.27112671  0.27615597    -0.78400
C3          C  0.49962212  0.28803581  0.25046492     0.82300
N4          N  0.51441524  0.27114881  0.22509506    -0.78400
C5          C  0.51560336  0.23765603  0.22543546     0.82400
N6          N  0.50126149  0.22098164  0.25141336    -0.80100
N7          N  0.53537186  0.37458780  0.25017561    -0.36900
N8          N  0.53527140  0.44689228  0.24476656    -0.57500
N9          N  0.46302876  0.44602582  0.24154262    -0.36900
N10         N  0.46311668  0.37363993  0.24735942    -0.57500
C11         C  0.56832577  0.38007167  0.24789261     0.26600
C12         C  0.53031334  0.34148424  0.24897553     0.26600
C13         C  0.46819218  0.47895527  0.24462335     0.26600
C14         C  0.43032999  0.44051935  0.24593902     0.26600
C15         C  0.56831220  0.44228828  0.24580987     0.35300
C16         C  0.53012704  0.47983283  0.24273600     0.35300
C17         C  0.46813063  0.34066526  0.24895008     0.35300
C18         C  0.43015619  0.37838096  0.24548774     0.35300
C19         C  0.58438103  0.34991369  0.24558794    -0.22200
C20         C  0.56067274  0.32578366  0.24673021    -0.22200
C21         C  0.43829175  0.49453957  0.25050671    -0.22200
C22         C  0.41451498  0.47053049  0.25093795    -0.22200
C23         C  0.58412931  0.47266930  0.24482463    -0.23300
C24         C  0.56015315  0.49619621  0.24214834    -0.23300
C25         C  0.43802736  0.32436719  0.24802600    -0.23300
C26         C  0.41409636  0.34814117  0.24606413    -0.23300
C27         C  0.58464589  0.41128578  0.24751818    -0.18600
C28         C  0.49933105  0.32477379  0.25001100    -0.18600
C29         C  0.41403414  0.40944800  0.24510013    -0.18600
C30         C  0.49892188  0.49569712  0.24260168    -0.18600
H31         H  0.61053970  0.34540695  0.24293799     0.14300
H32         H  0.56569308  0.29960656  0.24589303     0.14300
H33         H  0.43383800  0.52056859  0.25449160     0.14300
H34         H  0.38851298  0.47511052  0.25466222     0.14300
H35         H  0.61022277  0.47789394  0.24611678     0.12600
H36         H  0.56470107  0.52242659  0.24030944     0.12600
H37         H  0.43351314  0.29805950  0.24842183     0.12600
H38         H  0.38783275  0.34347054  0.24548579     0.12600
H39         H  0.51744635  0.39238933  0.25304980     0.25800
H40         H  0.48059023  0.42844836  0.23577699     0.25800
C41         C  0.67121139  0.39416538  0.27373498     0.79900
N42         N  0.63769557  0.39456055  0.27286231    -0.78400
C43         C  0.62142529  0.41138691  0.24833035     0.82300
N44         N  0.63900358  0.42831310  0.22473034    -0.78400
C45         C  0.67249480  0.42849021  0.22566062     0.82400
N46         N  0.68840144  0.41116419  0.24997888    -0.80100
C47         C  0.51427232  0.58265398  0.26798684     0.79900
N48         N  0.51489762  0.54919738  0.26717500    -0.78400
C49         C  0.49834196  0.53241097  0.24289221     0.82300
N50         N  0.48075185  0.54938631  0.21941248    -0.78400
C51         C  0.47993618  0.58295491  0.21999999     0.82400
N52         N  0.49673424  0.59943133  0.24440340    -0.80100
C53         C  0.32629721  0.39658783  0.22126768     0.79900
N54         N  0.31064820  0.40933497  0.24864216    -0.78400
C55         C  0.32818117  0.42234652  0.27458119     0.82300
N56         N  0.36159160  0.42214611  0.27329042    -0.78400
C57         C  0.37751277  0.40948265  0.24615148     0.82400
N58         N  0.35981915  0.39684907  0.22012485    -0.80100
C59         C  0.51720305  0.57986961  0.72778720     0.79900
N60         N  0.51602643  0.54641226  0.72788361    -0.78400
C61         C  0.50020703  0.53001729  0.75295640     0.82300
N62         N  0.48537994  0.54720180  0.77807035    -0.78400
C63         C  0.48585948  0.58069474  0.77807369     0.82400
N64         N  0.50189384  0.59686603  0.75287486    -0.80100
N65         N  0.46173812  0.37298141  0.75034371    -0.36900
N66         N  0.46247716  0.44507615  0.75240595    -0.57500
N67         N  0.53525723  0.44404833  0.75021272    -0.36900
N68         N  0.53463877  0.37193161  0.75035252    -0.57500
C69         C  0.42877063  0.37852295  0.75202921     0.26600
C70         C  0.46676821  0.33996728  0.75166806     0.26600
C71         C  0.53028153  0.47694620  0.75300822     0.26600
C72         C  0.56819298  0.43854077  0.75156718     0.26600
C73         C  0.42938914  0.44073751  0.75193120     0.35300
C74         C  0.46802508  0.47797699  0.75272890     0.35300
C75         C  0.52910727  0.33903462  0.74958518     0.35300
C76         C  0.56768056  0.37640105  0.74867499     0.35300
C77         C  0.41263147  0.34833690  0.75389199    -0.22200
C78         C  0.43644036  0.32422957  0.75407151    -0.22200
C79         C  0.56056179  0.49263753  0.75597901    -0.22200
C80         C  0.58432680  0.46866963  0.75456524    -0.22200
C81         C  0.41386241  0.47123798  0.75260196    -0.23300
C82         C  0.43815738  0.49465036  0.75261590    -0.23300
C83         C  0.55897508  0.32246147  0.74740322    -0.23300
C84         C  0.58325956  0.34594499  0.74722423    -0.23300
C85         C  0.41272603  0.40986823  0.75161279    -0.18600
C86         C  0.49773650  0.32339343  0.75082673    -0.18600
C87         C  0.58422722  0.40733271  0.74964176    -0.18600
C88         C  0.49941463  0.49352691  0.75292728    -0.18600
H89         H  0.38639224  0.34373322  0.75497580     0.14300
H90         H  0.43167540  0.29801620  0.75586671     0.14300
H91         H  0.56535440  0.51873887  0.75895174     0.14300
H92         H  0.61051687  0.47348518  0.75544482     0.14300
H93         H  0.38773865  0.47649547  0.75325737     0.12600
H94         H  0.43393959  0.52099261  0.75249119     0.12600
H95         H  0.56313545  0.29613160  0.74607470     0.12600
H96         H  0.60939927  0.34076411  0.74649909     0.12600
H97         H  0.47967858  0.39042818  0.74805266     0.25800
H98         H  0.51734753  0.42670915  0.74694356     0.25800
C99         C  0.32577465  0.39671941  0.77862851     0.79900
N100        N  0.35923411  0.39566671  0.77748148    -0.78400
C101        C  0.37598946  0.41058569  0.75204001     0.82300
N102        N  0.35898013  0.42714144  0.72774860    -0.78400
C103        C  0.32546196  0.42874743  0.72880766     0.82400
N104        N  0.30911360  0.41333025  0.75424170    -0.80100
C105        C  0.48212817  0.23692910  0.72450769     0.79900
N106        N  0.48219281  0.27041243  0.72529166    -0.78400
C107        C  0.49723670  0.28682658  0.75079650     0.82300
N108        N  0.51242281  0.26959601  0.77573311    -0.78400
C109        C  0.51291340  0.23606639  0.77507632     0.82400
N110        N  0.49773945  0.21993068  0.74937143    -0.80100
C111        C  0.67135519  0.42304530  0.77382907     0.79900
N112        N  0.63790757  0.42220089  0.77445286    -0.78400
C113        C  0.62084829  0.40707941  0.74943014     0.82300
N114        N  0.63752584  0.39197827  0.72409041    -0.78400
C115        C  0.67102574  0.39173525  0.72374206     0.82400
N116        N  0.68775833  0.40764900  0.74849393    -0.80100
C117        C  0.98025681  0.73476475  0.76800827     0.79900
N118        N  0.98062624  0.76821737  0.76907486    -0.78400
C119        C  0.99569239  0.78582473  0.74436636     0.82300
N120        N  0.01057641  0.76976252  0.71847496    -0.78400
C121        C  0.01067716  0.73624858  0.71729377     0.82400
N122        N  0.99545199  0.71886959  0.74218876    -0.80100
N123        N  0.02981532  0.94425658  0.75325411    -0.36900
N124        N  0.95760366  0.94370418  0.75109593    -0.57500
N125        N  0.95871258  0.87131809  0.74642042    -0.36900
N126        N  0.03085260  0.87189797  0.74774500    -0.57500
C127        C  0.02404359  0.97709241  0.75073553     0.26600
C128        C  0.06258451  0.93945280  0.74878232     0.26600
C129        C  0.92571801  0.87609362  0.74793831     0.26600
C130        C  0.96425136  0.83836110  0.74636489     0.26600
C131        C  0.96211902  0.97671589  0.75323470     0.35300
C132        C  0.92469270  0.93831330  0.75114192     0.35300
C133        C  0.06373989  0.87726244  0.74855784     0.35300
C134        C  0.02636733  0.83884773  0.74627226     0.35300
C135        C  0.05368860  0.99337234  0.74533433    -0.22200
C136        C  0.07788969  0.96986006  0.74456916    -0.22200
C137        C  0.91006079  0.84560748  0.74857616    -0.22200
C138        C  0.93415565  0.82199506  0.74710349    -0.22200
C139        C  0.93183518  0.99244092  0.75485028    -0.23300
C140        C  0.90825368  0.96833398  0.75300990    -0.23300
C141        C  0.08025955  0.84728095  0.74733780    -0.23300
C142        C  0.05672144  0.82309583  0.74628586    -0.23300
C143        C  0.99299814  0.99315571  0.75283419    -0.18600
C144        C  0.07933320  0.90865184  0.74868870    -0.18600
C145        C  0.99546239  0.82239939  0.74545482    -0.18600
C146        C  0.90905531  0.90693807  0.74917427    -0.18600
H147        H  0.05771890  0.01955129  0.74187869     0.14300
H148        H  0.10381093  0.97506916  0.74114292     0.14300
H149        H  0.88393082  0.84050453  0.75026081     0.14300
H150        H  0.92956195  0.79572373  0.74660128     0.14300
H151        H  0.92697213  0.01861060  0.75683095     0.12600
H152        H  0.88200247  0.97289581  0.75277975     0.12600
H153        H  0.10655902  0.84293374  0.74676220     0.12600
H154        H  0.06170204  0.79688901  0.74561783     0.12600
H155        H  0.01257570  0.92626852  0.75854046     0.25800
H156        H  0.97634048  0.88951874  0.74510417     0.25800
C157        C  0.16499157  0.92338260  0.71921730     0.79900
N158        N  0.13158271  0.92374739  0.72091200    -0.78400
C159        C  0.11579694  0.90918744  0.74719774     0.82300
N160        N  0.13358912  0.89426100  0.77176953    -0.78400
C161        C  0.16700425  0.89344799  0.77013919     0.82400
N162        N  0.18258510  0.90801611  0.74371475    -0.80100
C163        C  0.01153047  0.07985036  0.77668827     0.79900
N164        N  0.99589509  0.09677764  0.75174763    -0.78400
C165        C  0.97888377  0.08039390  0.72741145     0.82300
N166        N  0.97754362  0.04689075  0.72819374    -0.78400
C167        C  0.99313612  0.02979480  0.75295592     0.82400
N168        N  0.01018435  0.04637463  0.77705468    -0.80100
C169        C  0.82158396  0.92201781  0.77231462     0.79900
N170        N  0.85502840  0.92135104  0.77325088    -0.78400
C171        C  0.87253915  0.90618585  0.74865660     0.82300
N172        N  0.85641069  0.89069097  0.72329364    -0.78400
C173        C  0.82298127  0.89055613  0.72231394     0.82400
N174        N  0.80557807  0.90657305  0.74665552    -0.80100
C175        C  0.01537724  0.08176031  0.22676296     0.79900
N176        N  0.01471067  0.04828457  0.22527967    -0.78400
C177        C  0.99713150  0.03067606  0.24823115     0.82300
N178        N  0.98020929  0.04659428  0.27281180    -0.78400
C179        C  0.98062500  0.08003015  0.27446723     0.82400
N180        N  0.99825174  0.09739367  0.25139041    -0.80100
N181        N  0.96232327  0.94461379  0.24878823    -0.36900
N182        N  0.03511387  0.94630618  0.24796044    -0.57500
N183        N  0.03649227  0.87450658  0.24842122    -0.36900
N184        N  0.96384606  0.87287006  0.24495174    -0.57500
C185        C  0.96757487  0.97727431  0.24401504     0.26600
C186        C  0.92979881  0.93865300  0.24367142     0.26600
C187        C  0.06912343  0.88081064  0.24442588     0.26600
C188        C  0.03163734  0.84200790  0.24227621     0.26600
C189        C  0.02903809  0.97888337  0.25158513     0.35300
C190        C  0.06792053  0.94216916  0.25246306     0.35300
C191        C  0.93074086  0.87680407  0.24718381     0.35300
C192        C  0.96969997  0.83999338  0.24542152     0.35300
C193        C  0.93798559  0.99243193  0.23601653    -0.22200
C194        C  0.91418713  0.96833621  0.23623397    -0.22200
C195        C  0.08520587  0.85156678  0.23646752    -0.22200
C196        C  0.06163784  0.82733282  0.23480637    -0.22200
C197        C  0.05816123  0.99557822  0.25825671    -0.23300
C198        C  0.08273690  0.97251128  0.25844368    -0.23300
C199        C  0.91553802  0.84612949  0.24811392    -0.23300
C200        C  0.94006654  0.82299144  0.24737993    -0.23300
C201        C  0.99794220  0.99423157  0.24778104    -0.18600
C202        C  0.91375616  0.90745216  0.24657920    -0.18600
C203        C  0.00118521  0.82477626  0.24363651    -0.18600
C204        C  0.08499451  0.91185706  0.24879640    -0.18600
H205        H  0.93378218  0.01831262  0.23080403     0.14300
H206        H  0.88837077  0.97285339  0.23152522     0.14300
H207        H  0.11125453  0.84756489  0.23245011     0.14300
H208        H  0.06623661  0.80171977  0.22869655     0.14300
H209        H  0.06159675  0.02175055  0.26236295     0.12600
H210        H  0.10854551  0.97802946  0.26212632     0.12600
H211        H  0.88946768  0.84057436  0.24867265     0.12600
H212        H  0.93619432  0.79659640  0.24812519     0.12600
H213        H  0.97973637  0.92772266  0.25665284     0.25800
H214        H  0.01869199  0.89105345  0.25613760     0.25800
C215        C  0.82627760  0.92007739  0.22156199     0.79900
N216        N  0.81009247  0.90406716  0.24670912    -0.78400
C217        C  0.82693737  0.88896656  0.27199780     0.82300
N218        N  0.86049457  0.89063041  0.27225376    -0.78400
C219        C  0.87701158  0.90650790  0.24706544     0.82400
N220        N  0.85971594  0.92068424  0.22166665    -0.80100
C221        C  0.98674419  0.73774774  0.21795849     0.79900
N222        N  0.98651107  0.77125888  0.21824739    -0.78400
C223        C  0.00249145  0.78818154  0.24282424     0.82300
N224        N  0.01908699  0.77142051  0.26717563    -0.78400
C225        C  0.01973903  0.73786283  0.26716530     0.82400
N226        N  0.00341293  0.72126411  0.24248881    -0.80100
C227        C  0.17282261  0.92844017  0.27051809     0.79900
N228        N  0.18831884  0.91660895  0.24264826    -0.78400
C229        C  0.17077948  0.90313870  0.21692706     0.82300
N230        N  0.13739908  0.90186800  0.21916654    -0.78400
C231        C  0.12159053  0.91304635  0.24706298     0.82400
N232        N  0.13942644  0.92620693  0.27272067    -0.80100
O233        O  0.17039091  0.28288646  0.96670197    -0.74800
O234        O  0.12385235  0.23464690  0.03478987    -0.74800
O235        O  0.17028735  0.28277108  0.03454752    -0.74900
O236        O  0.12381653  0.23469028  0.96623752    -0.74900
O237        O  0.16259713  0.19570361  0.96744650    -0.74800
O238        O  0.21026750  0.24506824  0.03390897    -0.74800
O239        O  0.16395945  0.19706407  0.03552095    -0.74800
O240        O  0.20922673  0.24398295  0.96605926    -0.74900
Ni241      Ni  0.14559809  0.26005417  0.00054565     1.25400
Ni242      Ni  0.18786483  0.21906398  0.00067421     1.25400
C243        C  0.19782545  0.27160651  0.95556728     0.87400
C244        C  0.13656004  0.20818847  0.04682156     0.87300
C245        C  0.19825706  0.27222370  0.04501890     0.87400
C246        C  0.13541324  0.20708998  0.95581088     0.87500
O247        O  0.62825927  0.08705508  0.03309737    -0.74800
O248        O  0.67457141  0.03730087  0.96622924    -0.74800
O249        O  0.67424754  0.03858342  0.03431120    -0.74900
O250        O  0.62879551  0.08555679  0.96482366    -0.74900
O251        O  0.66807409  0.12405039  0.96466318    -0.74800
O252        O  0.71432686  0.07622093  0.03349688    -0.74800
O253        O  0.71409458  0.07552886  0.96525303    -0.74800
O254        O  0.66816337  0.12487547  0.03317482    -0.74900
Ni255      Ni  0.65005942  0.06083067  0.99968774     1.25400
Ni256      Ni  0.69259615  0.10154972  0.99915870     1.25400
C257        C  0.64044009  0.11411872  0.04425053     0.87400
C258        C  0.70189453  0.04829255  0.95451026     0.87300
C259        C  0.70202810  0.04933119  0.04506409     0.87400
C260        C  0.64090396  0.11244394  0.95312950     0.87500
O261        O  0.87199480  0.58443396  0.02950835    -0.74800
O262        O  0.82393245  0.53595200  0.96303598    -0.74800
O263        O  0.87080021  0.58308648  0.96122310    -0.74900
O264        O  0.82512052  0.53699214  0.03151154    -0.74900
O265        O  0.78548268  0.57511193  0.03058506    -0.74800
O266        O  0.83254563  0.62263935  0.96229039    -0.74800
O267        O  0.78538207  0.57517477  0.96254004    -0.74800
O268        O  0.83243661  0.62260023  0.03032956    -0.74900
Ni269      Ni  0.84934940  0.55871339  0.99632751     1.25400
Ni270      Ni  0.80756595  0.60024950  0.99641978     1.25400
C271        C  0.86007614  0.61147954  0.04099220     0.87400
C272        C  0.79681235  0.54771547  0.95167323     0.87300
C273        C  0.85931816  0.61053753  0.95038295     0.87400
C274        C  0.79772199  0.54843938  0.04259786     0.87500
O275        O  0.28303908  0.74607215  0.96045480    -0.74800
O276        O  0.32646289  0.69880648  0.03090404    -0.74800
O277        O  0.28072189  0.74797318  0.02841952    -0.74900
O278        O  0.32891906  0.69750977  0.96282512    -0.74900
O279        O  0.36915910  0.73495362  0.96436220    -0.74800
O280        O  0.32024167  0.78622325  0.02775591    -0.74800
O281        O  0.36562844  0.73746928  0.03263200    -0.74800
O282        O  0.32324978  0.78360225  0.96007759    -0.74900
Ni283      Ni  0.30335787  0.72123425  0.99565759     1.25400
Ni284      Ni  0.34604199  0.76184060  0.99620611     1.25400
C285        C  0.29567971  0.77271922  0.94883223     0.87400
C286        C  0.35314561  0.71036324  0.04344436     0.87300
C287        C  0.29230516  0.77580039  0.03837182     0.87400
C288        C  0.35722513  0.70789350  0.95296692     0.87500
O289        O  0.12675376  0.58389467  0.52927292    -0.74800
O290        O  0.17501975  0.53551039  0.46287679    -0.74800
O291        O  0.17370416  0.53585796  0.53130223    -0.74900
O292        O  0.12836329  0.58345789  0.46115178    -0.74900
O293        O  0.16831545  0.62120661  0.46093090    -0.74800
O294        O  0.21212112  0.57517270  0.53277705    -0.74800
O295        O  0.21524303  0.57307802  0.46475030    -0.74800
O296        O  0.16558434  0.62286667  0.52921573    -0.74900
Ni297      Ni  0.14958309  0.55828700  0.49613441     1.25400
Ni298      Ni  0.19170937  0.59944051  0.49687599     1.25400
C299        C  0.13798955  0.61153623  0.53993549     0.87400
C300        C  0.20325652  0.54608669  0.45326074     0.87300
C301        C  0.20033510  0.54785245  0.54380968     0.87400
C302        C  0.14074569  0.61033234  0.44957009     0.87500
O303        O  0.28263650  0.07366415  0.53117303    -0.74800
O304        O  0.33372730  0.12311414  0.46742682    -0.74800
O305        O  0.28672416  0.07560070  0.46335049    -0.74900
O306        O  0.32981398  0.12136615  0.53530732    -0.74900
O307        O  0.36968375  0.08353509  0.53495005    -0.74800
O308        O  0.32449903  0.03573964  0.46577982    -0.74800
O309        O  0.37146597  0.08306707  0.46675866    -0.74800
O310        O  0.32257385  0.03593745  0.53391138    -0.74900
Ni311      Ni  0.30681167  0.09981316  0.49932125     1.25400
Ni312      Ni  0.34844643  0.05818979  0.50046968     1.25400
C313        C  0.29416867  0.04658230  0.54294137     0.87400
C314        C  0.36081762  0.11100405  0.45630398     0.87300
C315        C  0.29828776  0.04801491  0.45286250     0.87400
C316        C  0.35743279  0.11047828  0.54633665     0.87500
O317        O  0.78209449  0.23907450  0.46464884    -0.74800
O318        O  0.82983940  0.19188539  0.53294435    -0.74800
O319        O  0.78233472  0.23917711  0.53286785    -0.74900
O320        O  0.82925717  0.19190837  0.46484392    -0.74900
O321        O  0.86855041  0.23041408  0.46537013    -0.74800
O322        O  0.82070225  0.27859422  0.53198814    -0.74800
O323        O  0.86790227  0.23163813  0.53365722    -0.74800
O324        O  0.82133975  0.27759134  0.46399079    -0.74900
Ni325      Ni  0.80448023  0.21411761  0.49886341     1.25400
Ni326      Ni  0.84601303  0.25591954  0.49871413     1.25400
C327        C  0.79390044  0.26615963  0.45301511     0.87400
C328        C  0.85669455  0.20407901  0.54463141     0.87300
C329        C  0.79362916  0.26681238  0.54347894     0.87400
C330        C  0.85676494  0.20326867  0.45403240     0.87500
O331        O  0.62527197  0.72933105  0.46500960    -0.74800
O332        O  0.67446867  0.77612557  0.53151111    -0.74800
O333        O  0.67294557  0.77609103  0.46320357    -0.74900
O334        O  0.62748117  0.72916774  0.53330777    -0.74900
O335        O  0.66685305  0.69081369  0.53311997    -0.74800
O336        O  0.71074017  0.73623116  0.46146289    -0.74800
O337        O  0.71401609  0.73792303  0.52951334    -0.74800
O338        O  0.66306484  0.68938595  0.46495844    -0.74900
Ni339      Ni  0.64865613  0.75406431  0.49827637     1.25400
Ni340      Ni  0.69003192  0.71217811  0.49719460     1.25400
C341        C  0.63592790  0.70161405  0.45404877     0.87400
C342        C  0.70225689  0.76483574  0.54148052     0.87300
C343        C  0.69946231  0.76382441  0.45075247     0.87400
C344        C  0.63989714  0.70241669  0.54503540     0.87500
C345        C  0.24470250  0.96048444  0.32236438    -0.11200
C346        C  0.22834951  0.97804447  0.34791083     0.06000
C347        C  0.19371875  0.97846909  0.34827692    -0.09900
C348        C  0.17575345  0.96193187  0.32349485    -0.11600
C349        C  0.19201009  0.94470874  0.29761730    -0.01400
C350        C  0.22671851  0.94409134  0.29737653    -0.10500
C351        C  0.24713074  0.99617796  0.37404697     0.06000
H352        H  0.18048082  0.99147332  0.36792406     0.07900
H353        H  0.14908628  0.96301599  0.32443556     0.11400
H354        H  0.24003480  0.93109303  0.27778648     0.11600
H355        H  0.27139036  0.95997245  0.32135020     0.07900
C356        C  0.27446652  0.98168269  0.38996432    -0.11200
C357        C  0.29124975  0.99851917  0.41551261    -0.10500
C358        C  0.28106064  0.03021409  0.42551029    -0.01400
C359        C  0.25402745  0.04482277  0.40919047    -0.11600
C360        C  0.23728177  0.02800607  0.38374593    -0.10000
H361        H  0.28240816  0.95705971  0.38314819     0.07900
H362        H  0.31196504  0.98657537  0.42765012     0.11600
H363        H  0.24572410  0.06930173  0.41608792     0.11400
H364        H  0.21662677  0.03997358  0.37152190     0.07900
C365        C  0.23870166  0.87300852  0.15897620    -0.11200
C366        C  0.22069701  0.85576377  0.13439823     0.06000
C367        C  0.18610070  0.85620993  0.13582037    -0.09900
C368        C  0.16984516  0.87253725  0.16200808    -0.11600
C369        C  0.18787574  0.88864177  0.18743398    -0.01400
C370        C  0.22247695  0.88923074  0.18524840    -0.10500
C371        C  0.23805017  0.83593376  0.10850103     0.06000
H372        H  0.17162654  0.84354514  0.11688512     0.07900
H373        H  0.14315771  0.87180004  0.16273526     0.11400
H374        H  0.23713318  0.90148970  0.20430800     0.11600
H375        H  0.26540727  0.87289672  0.15862101     0.07900
C376        C  0.26616958  0.84841147  0.09221586    -0.11200
C377        C  0.28360404  0.82891229  0.06930329    -0.10500
C378        C  0.27331397  0.79648341  0.06220808    -0.01400
C379        C  0.24485104  0.78421326  0.07806216    -0.11600
C380        C  0.22741095  0.80374164  0.10099726    -0.10000
H381        H  0.27468310  0.87326711  0.09723363     0.07900
H382        H  0.30522157  0.83926076  0.05720187     0.11600
H383        H  0.23632144  0.75935149  0.07314123     0.11400
H384        H  0.20605787  0.79334772  0.11353972     0.07900
C385        C  0.07102229  0.71902846  0.34523552    -0.11200
C386        C  0.07033158  0.68431702  0.34619729     0.06000
C387        C  0.05286087  0.66745967  0.32087987    -0.09900
C388        C  0.03666485  0.68478512  0.29522306    -0.11600
C389        C  0.03733699  0.71949350  0.29424739    -0.01400
C390        C  0.05471151  0.73638987  0.31963413    -0.10500
C391        C  0.08813091  0.66568810  0.37312678     0.06000
H392        H  0.05216071  0.64075148  0.32055812     0.07900
H393        H  0.02360918  0.67088011  0.27612642     0.11400
H394        H  0.05571718  0.76309378  0.31980424     0.11600
H395        H  0.08390397  0.73282724  0.36453067     0.07900
C396        C  0.11960154  0.67572765  0.38396885    -0.11200
C397        C  0.13669309  0.65774880  0.40859099    -0.10500
C398        C  0.12275960  0.62925548  0.42309331    -0.01400
C399        C  0.09116180  0.61937674  0.41244884    -0.11600
C400        C  0.07408941  0.63734226  0.38781211    -0.10000
H401        H  0.13132470  0.69719809  0.37295027     0.07900
H402        H  0.16094454  0.66612548  0.41614671     0.11600
H403        H  0.07949138  0.59777972  0.42326900     0.11400
H404        H  0.04970228  0.62918299  0.38046101     0.07900
C405        C  0.88210531  0.67623533  0.10596246    -0.11200
C406        C  0.91343536  0.66563736  0.11652988     0.06000
C407        C  0.92705588  0.63713133  0.10191870    -0.09900
C408        C  0.90972459  0.61954054  0.07742271    -0.11600
C409        C  0.87841897  0.63012639  0.06689268    -0.01400
C410        C  0.86480478  0.65869882  0.08136221    -0.10500
C411        C  0.93195224  0.68420600  0.14263154     0.06000
H412        H  0.95136311  0.62863142  0.10909825     0.07900
H413        H  0.92096037  0.59772891  0.06662241     0.11400
H414        H  0.84067258  0.66743828  0.07384276     0.11600
H415        H  0.87074935  0.69784612  0.11703622     0.07900
C416        C  0.93170661  0.71888606  0.14300977    -0.11200
C417        C  0.94958294  0.73628130  0.16732238    -0.10500
C418        C  0.96812419  0.71938034  0.19182419    -0.01400
C419        C  0.96823591  0.68469690  0.19146586    -0.11600
C420        C  0.95032717  0.66733451  0.16721054    -0.10000
H421        H  0.91810397  0.73261750  0.12417884     0.07900
H422        H  0.94885959  0.76298962  0.16685277     0.11600
H423        H  0.98206295  0.67085462  0.21003418     0.11400
H424        H  0.95058565  0.64062423  0.16794849     0.07900
C425        C  0.75636385  0.85233733  0.32277285    -0.11200
C426        C  0.77296528  0.83512698  0.34836541     0.06000
C427        C  0.80767281  0.83564228  0.34869573    -0.09900
C428        C  0.82530978  0.85317886  0.32408963    -0.11600
C429        C  0.80862058  0.87053064  0.29854621    -0.01400
C430        C  0.77391983  0.86975650  0.29820557    -0.10500
C431        C  0.75399789  0.81675357  0.37449197     0.06000
H432        H  0.82119506  0.82284480  0.36825971     0.07900
H433        H  0.85199468  0.85311010  0.32509706     0.11400
H434        H  0.76015091  0.88258630  0.27885165     0.11600
H435        H  0.72969268  0.85199095  0.32145472     0.07900
C436        C  0.72505890  0.83022997  0.38843156    -0.11200
C437        C  0.70711442  0.81295457  0.41289405    -0.10500
C438        C  0.71770662  0.78179198  0.42401095    -0.01400
C439        C  0.74649525  0.76820246  0.40988331    -0.11600
C440        C  0.76444493  0.78549369  0.38546442    -0.10000
H441        H  0.71654022  0.85441976  0.38078863     0.07900
H442        H  0.68512749  0.82417706  0.42332559     0.11600
H443        H  0.75528498  0.74417964  0.41776460     0.11400
H444        H  0.78632337  0.77420907  0.37487288     0.07900
C445        C  0.80716054  0.96788677  0.14180592    -0.11200
C446        C  0.77316715  0.97363247  0.14520646     0.06000
C447        C  0.75658763  0.96093487  0.17352220    -0.09900
C448        C  0.77369146  0.94309333  0.19806782    -0.11600
C449        C  0.80778041  0.93763268  0.19485243    -0.01400
C450        C  0.82428420  0.95010173  0.16635601    -0.10500
C451        C  0.75507293  0.99298581  0.11942804     0.06000
H452        H  0.73046840  0.96534831  0.17701266     0.07900
H453        H  0.76028019  0.93408631  0.21983749     0.11400
H454        H  0.85050072  0.94619576  0.16300255     0.11600
H455        H  0.82048254  0.97697727  0.12001413     0.07900
C456        C  0.76883773  0.02191420  0.10579583    -0.11200
C457        C  0.75156467  0.04035400  0.08181346    -0.10500
C458        C  0.72021216  0.03017170  0.07085427    -0.01400
C459        C  0.70657408  0.00111096  0.08436803    -0.11600
C460        C  0.72378341  0.98277354  0.10842962    -0.10000
H461        H  0.79278436  0.03054681  0.11405053     0.07900
H462        H  0.76280244  0.06256610  0.07184664     0.11600
H463        H  0.68257322  0.99244725  0.07632308     0.11400
H464        H  0.71276603  0.96035014  0.11816461     0.07900
C465        C  0.87900702  0.13891457  0.38900710    -0.11200
C466        C  0.91075846  0.14910770  0.37946751     0.06000
C467        C  0.92465622  0.17713792  0.39463701    -0.09900
C468        C  0.90703320  0.19482517  0.41877184    -0.11600
C469        C  0.87523162  0.18471539  0.42828986    -0.01400
C470        C  0.86137744  0.15657298  0.41320805    -0.10500
C471        C  0.92898309  0.13117555  0.35301095     0.06000
H472        H  0.94926460  0.18526561  0.38796145     0.07900
H473        H  0.91840974  0.21631378  0.43008479     0.11400
H474        H  0.83683380  0.14829440  0.41992789     0.11600
H475        H  0.86758496  0.11765137  0.37729736     0.07900
C476        C  0.92929825  0.09653442  0.35236941    -0.11200
C477        C  0.94606075  0.07979971  0.32683737    -0.10500
C478        C  0.96276646  0.09746369  0.30152063    -0.01400
C479        C  0.96250294  0.13212128  0.30236256    -0.11600
C480        C  0.94578255  0.14878357  0.32783811    -0.10000
H481        H  0.91680348  0.08242291  0.37175628     0.07900
H482        H  0.94596112  0.05307643  0.32700481     0.11600
H483        H  0.97505988  0.14649238  0.28322792     0.11400
H484        H  0.94551979  0.17550821  0.32751894     0.07900
C485        C  0.07286338  0.18357337  0.11198828    -0.11200
C486        C  0.08832246  0.15659753  0.12764777     0.06000
C487        C  0.11980714  0.14694001  0.11669885    -0.09900
C488        C  0.13533040  0.16360012  0.09031335    -0.11600
C489        C  0.11977779  0.19040820  0.07444046    -0.01400
C490        C  0.08844584  0.20033236  0.08563858    -0.10500
C491        C  0.07102636  0.13766806  0.15424773     0.06000
H492        H  0.13248391  0.12651641  0.12860626     0.07900
H493        H  0.15960744  0.15552852  0.08246303     0.11400
H494        H  0.07583399  0.22087375  0.07387608     0.11600
H495        H  0.04838619  0.19125113  0.11959085     0.07900
C496        C  0.05226528  0.15388315  0.17897616    -0.11200
C497        C  0.03441500  0.13575774  0.20275017    -0.10500
C498        C  0.03496090  0.10104156  0.20222460    -0.01400
C499        C  0.05434052  0.08491379  0.17794575    -0.11600
C500        C  0.07218101  0.10303058  0.15423655    -0.10000
H501        H  0.05134189  0.18057950  0.17987679     0.07900
H502        H  0.01995490  0.14898883  0.22130479     0.11600
H503        H  0.05547871  0.05823574  0.17695870     0.11400
H504        H  0.08616618  0.08985728  0.13526849     0.07900
C505        C  0.76018408  0.86785453  0.65612976    -0.11200
C506        C  0.77315694  0.83811191  0.64334840     0.06000
C507        C  0.80313277  0.82634285  0.65656762    -0.09900
C508        C  0.81955066  0.84375980  0.68183252    -0.11600
C509        C  0.80593922  0.87280973  0.69509658    -0.01400
C510        C  0.77613756  0.88470797  0.68210763    -0.10500
C511        C  0.75514515  0.81917203  0.61696569     0.06000
H512        H  0.81367860  0.80329563  0.64803002     0.07900
H513        H  0.84249360  0.83402634  0.69165444     0.11400
H514        H  0.76547933  0.90736336  0.69165215     0.11600
H515        H  0.73775858  0.87835713  0.64601096     0.07900
C516        C  0.72048109  0.82014268  0.61547507    -0.11200
C517        C  0.70347355  0.80271200  0.59070522    -0.10500
C518        C  0.72059385  0.78314294  0.56740282    -0.01400
C519        C  0.75507469  0.78145491  0.56906360    -0.11600
C520        C  0.77223256  0.79964520  0.59329965    -0.10000
H521        H  0.70626135  0.83396378  0.63372877     0.07900
H522        H  0.67679500  0.80404876  0.59018113     0.11600
H523        H  0.76878983  0.76666235  0.55115147     0.11400
H524        H  0.79889242  0.79868067  0.59308383     0.07900
C525        C  0.75185077  0.96012595  0.82309241    -0.11200
C526        C  0.76931403  0.97595791  0.84913008     0.06000
C527        C  0.80385459  0.97369887  0.84958497    -0.09900
C528        C  0.82058123  0.95615188  0.82470100    -0.11600
C529        C  0.80323884  0.94021009  0.79871112    -0.01400
C530        C  0.76864499  0.94238115  0.79814354    -0.10500
C531        C  0.75181221  0.99456192  0.87599005     0.06000
H532        H  0.81805595  0.98508834  0.86953730     0.07900
H533        H  0.84723066  0.95505880  0.82599755     0.11400
H534        H  0.75454847  0.93055027  0.77837286     0.11600
H535        H  0.72523516  0.96177665  0.82176463     0.07900
C536        C  0.76530841  0.02389255  0.88899595    -0.11200
C537        C  0.74932282  0.04108039  0.91474915    -0.10500
C538        C  0.71933291  0.02948760  0.92796492    -0.01400
C539        C  0.70584040  0.00011920  0.91507219    -0.11600
C540        C  0.72190509  0.98284993  0.88936782    -0.10000
H541        H  0.78808174  0.03385482  0.87897358     0.07900
H542        H  0.76036019  0.06362799  0.92409384     0.11600
H543        H  0.68280679  0.99045880  0.92479294     0.11400
H544        H  0.71113490  0.96006305  0.88032336     0.07900
C545        C  0.91508732  0.10422237  0.66225553    -0.11200
C546        C  0.92837973  0.13344610  0.64865307     0.06000
C547        C  0.95866599  0.14505737  0.66137755    -0.09900
C548        C  0.97499084  0.12802833  0.68719226    -0.11600
C549        C  0.96168498  0.09874276  0.70041617    -0.01400
C550        C  0.93170076  0.08692772  0.68756764    -0.10500
C551        C  0.91050496  0.15169108  0.62154192     0.06000
H552        H  0.96996433  0.16711618  0.65115390     0.07900
H553        H  0.99830142  0.13743395  0.69642672     0.11400
H554        H  0.92075440  0.06458028  0.69759027     0.11600
H555        H  0.89152855  0.09488260  0.65369425     0.07900
C556        C  0.89267478  0.13448596  0.59666622    -0.11200
C557        C  0.87491909  0.15150840  0.57193620    -0.10500
C558        C  0.87511021  0.18611785  0.57104731    -0.01400
C559        C  0.89329410  0.20342318  0.59542666    -0.11600
C560        C  0.91057407  0.18642601  0.62056616    -0.10000
H561        H  0.89261831  0.10777953  0.59610627     0.07900
H562        H  0.86146539  0.13758812  0.55312825     0.11600
H563        H  0.89362345  0.23015347  0.59541801     0.11400
H564        H  0.92351165  0.20054497  0.63957017     0.07900
C565        C  0.08196674  0.18623552  0.88055557    -0.11200
C566        C  0.08211053  0.15144118  0.88089842     0.06000
C567        C  0.10024245  0.13528940  0.90630261    -0.09900
C568        C  0.11786295  0.15339339  0.93036212    -0.11600
C569        C  0.11715818  0.18802704  0.93011483    -0.01400
C570        C  0.09888712  0.20426820  0.90512795    -0.10500
C571        C  0.06356217  0.13232981  0.85479294     0.06000
H572        H  0.10054753  0.10863856  0.90796843     0.07900
H573        H  0.13154276  0.14029855  0.94961656     0.11400
H574        H  0.09826144  0.23097710  0.90416762     0.11600
H575        H  0.06915784  0.19972124  0.86100559     0.07900
C576        C  0.03436155  0.14510354  0.84067964    -0.11200
C577        C  0.01779510  0.12821946  0.81507277    -0.10500
C578        C  0.02940735  0.09767446  0.80354338    -0.01400
C579        C  0.05790382  0.08419805  0.81817685    -0.11600
C580        C  0.07501463  0.10148660  0.84324516    -0.10000
H581        H  0.02403942  0.16814824  0.84950696     0.07900
H582        H  0.99550688  0.13881788  0.80465035     0.11600
H583        H  0.06739195  0.06064595  0.80964654     0.11400
H584        H  0.09757504  0.09092033  0.85298995     0.07900
C585        C  0.22104226  0.01067225  0.58951890    -0.11200
C586        C  0.23653462  0.99037269  0.61354194     0.06000
C587        C  0.27118677  0.98832919  0.61350782    -0.09900
C588        C  0.28984541  0.00625276  0.59026128    -0.11600
C589        C  0.27434924  0.02717070  0.56700337    -0.01400
C590        C  0.23978877  0.02913510  0.56670628    -0.10500
C591        C  0.21689920  0.97225663  0.63928515     0.06000
H592        H  0.28406354  0.97351237  0.63198818     0.07900
H593        H  0.31648021  0.00437813  0.59103145     0.11400
H594        H  0.22724812  0.04467431  0.54856928     0.11600
H595        H  0.19442632  0.01228414  0.58826134     0.07900
C596        C  0.18812521  0.98626659  0.65309472    -0.11200
C597        C  0.17071660  0.96996244  0.67856164    -0.10500
C598        C  0.18214893  0.93973589  0.69117607    -0.01400
C599        C  0.21058631  0.92553013  0.67734659    -0.11600
C600        C  0.22752581  0.94137315  0.65133272    -0.10000
H601        H  0.17951677  0.01025402  0.64494788     0.07900
H602        H  0.14894043  0.98147021  0.68916223     0.11600
H603        H  0.21955587  0.90200240  0.68650920     0.11400
H604        H  0.24904036  0.92941742  0.64076840     0.07900
C605        C  0.23861245  0.86345990  0.82315775    -0.11200
C606        C  0.22235665  0.84476052  0.84795417     0.06000
C607        C  0.18778898  0.84250581  0.84712931    -0.09900
C608        C  0.16987214  0.85828744  0.82185463    -0.11600
C609        C  0.18611440  0.87679477  0.79688208    -0.01400
C610        C  0.22068049  0.87925541  0.79781619    -0.10500
C611        C  0.24136898  0.82664937  0.87390453     0.06000
H612        H  0.17453982  0.82860835  0.86614445     0.07900
H613        H  0.14327474  0.85583424  0.82185883     0.11400
H614        H  0.23393692  0.89333138  0.77894631     0.11600
H615        H  0.26525395  0.86529029  0.82291513     0.07900
C616        C  0.23199350  0.79452380  0.88309321    -0.11200
C617        C  0.24985350  0.77705869  0.90718768    -0.10500
C618        C  0.27765200  0.79121233  0.92256736    -0.01400
C619        C  0.28717544  0.82334335  0.91337897    -0.11600
C620        C  0.26914625  0.84093541  0.88929154    -0.10000
H621        H  0.21106206  0.78263805  0.87127755     0.07900
H622        H  0.24190025  0.75233312  0.91365729     0.11600
H623        H  0.30828142  0.83502974  0.92508072     0.11400
H624        H  0.27668710  0.86583230  0.88299728     0.07900
C625        C  0.06713876  0.71895790  0.64318964    -0.11200
C626        C  0.06268078  0.68484972  0.63861102     0.06000
C627        C  0.04010097  0.66807168  0.65938604    -0.09900
C628        C  0.02284198  0.68485778  0.68455471    -0.11600
C629        C  0.02774137  0.71882860  0.68953279    -0.01400
C630        C  0.04978787  0.73578617  0.66831196    -0.10500
C631        C  0.08186120  0.66664220  0.61270160     0.06000
H632        H  0.03633576  0.64174486  0.65675825     0.07900
H633        H  0.00588097  0.67110639  0.70032396     0.11400
H634        H  0.05409210  0.76198384  0.67145318     0.11600
H635        H  0.08398484  0.73268357  0.62727562     0.07900
C636        C  0.06704979  0.64121533  0.59396930    -0.11200
C637        C  0.08532487  0.62330363  0.57041398    -0.10500
C638        C  0.11874395  0.63062007  0.56482141    -0.01400
C639        C  0.13350672  0.65631698  0.58316373    -0.11600
C640        C  0.11529317  0.67405201  0.60696950    -0.10000
H641        H  0.04121571  0.63528658  0.59734688     0.07900
H642        H  0.07318416  0.60387620  0.55637125     0.11600
H643        H  0.15927790  0.66239285  0.57949420     0.11400
H644        H  0.12756977  0.69314775  0.62134446     0.07900
C645        C  0.95793093  0.66796213  0.83062623    -0.11200
C646        C  0.92902920  0.68086553  0.84528261     0.06000
C647        C  0.91709402  0.71144804  0.83374843    -0.09900
C648        C  0.93396676  0.72899043  0.80884118    -0.11600
C649        C  0.96270701  0.71602266  0.79430827    -0.01400
C650        C  0.97439215  0.68521957  0.80511384    -0.10500
C651        C  0.91140681  0.66269468  0.87251749     0.06000
H652        H  0.89449289  0.72178375  0.84371296     0.07900
H653        H  0.92421877  0.75250835  0.80052306     0.11400
H654        H  0.99666244  0.67485592  0.79436387     0.11600
H655        H  0.96819215  0.64478647  0.83920499     0.07900
C656        C  0.91025418  0.62797797  0.87262693    -0.11200
C657        C  0.89365110  0.61103128  0.89822098    -0.10500
C658        C  0.87722668  0.62842871  0.92376078    -0.01400
C659        C  0.87810566  0.66300298  0.92371726    -0.11600
C660        C  0.89536485  0.67996352  0.89861122    -0.10000
H661        H  0.92173155  0.61383557  0.85267481     0.07900
H662        H  0.89302994  0.58430971  0.89766708     0.11600
H663        H  0.86594656  0.67688480  0.94347504     0.11400
H664        H  0.89637608  0.70662405  0.89989344     0.07900
C665        C  0.77631101  0.48676001  0.88277566    -0.11200
C666        C  0.74314223  0.49437271  0.87612856     0.06000
C667        C  0.72779484  0.51967686  0.89455352    -0.09900
C668        C  0.74529213  0.53708472  0.91903726    -0.11600
C669        C  0.77841203  0.52939340  0.92570909    -0.01400
C670        C  0.79376218  0.50406569  0.90737159    -0.10500
C671        C  0.72468451  0.47607465  0.84994540     0.06000
H672        H  0.70238572  0.52635493  0.88970326     0.07900
H673        H  0.73282537  0.55645989  0.93286187     0.11400
H674        H  0.81931520  0.49771425  0.91191355     0.11600
H675        H  0.78867147  0.46712652  0.86924679     0.07900
C676        C  0.74001887  0.46755877  0.81939624    -0.11200
C677        C  0.72275494  0.45012016  0.79477841    -0.10500
C678        C  0.68970739  0.44108431  0.80009378    -0.01400
C679        C  0.67425646  0.44983929  0.83050579    -0.11600
C680        C  0.69162705  0.46702218  0.85526240    -0.10000
H681        H  0.76526897  0.47475202  0.81433255     0.07900
H682        H  0.73519124  0.44410515  0.77139906     0.11600
H683        H  0.64883715  0.44310303  0.83535020     0.11400
H684        H  0.67930132  0.47285771  0.87874491     0.07900
C685        C  0.77048802  0.33282630  0.60643894    -0.11200
C686        C  0.74118290  0.32004273  0.62015289     0.06000
C687        C  0.72896805  0.28984847  0.60798884    -0.09900
C688        C  0.74580894  0.27270859  0.58281511    -0.11600
C689        C  0.77531852  0.28531449  0.56943877    -0.01400
C690        C  0.78739636  0.31563087  0.58136535    -0.10500
C691        C  0.72330207  0.33826571  0.64687146     0.06000
H692        H  0.70664657  0.27917084  0.61830473     0.07900
H693        H  0.73585681  0.24942840  0.57408638     0.11400
H694        H  0.80996537  0.32610113  0.57137651     0.11600
H695        H  0.78019002  0.35632576  0.61482526     0.07900
C696        C  0.74066101  0.35484243  0.67241696    -0.11200
C697        C  0.72374113  0.37241130  0.69725895    -0.10500
C698        C  0.68908402  0.37364358  0.69715689    -0.01400
C699        C  0.67177063  0.35682883  0.67176620    -0.11600
C700        C  0.68868790  0.33940847  0.64687278    -0.10000
H701        H  0.76733167  0.35394235  0.67343267     0.07900
H702        H  0.73785841  0.38485768  0.71661729     0.11600
H703        H  0.64508152  0.35716473  0.67099426     0.11400
H704        H  0.67461994  0.32725057  0.62729693     0.07900
C705        C  0.55708016  0.21504033  0.85656094    -0.11200
C706        C  0.56735382  0.18246518  0.85051926     0.06000
C707        C  0.55868874  0.16731573  0.81992874    -0.09900
C708        C  0.54054615  0.18453912  0.79567997    -0.11600
C709        C  0.53076553  0.21733824  0.80145148    -0.01400
C710        C  0.53901240  0.23231332  0.83227379    -0.10500
C711        C  0.58695374  0.16431506  0.87609204     0.06000
H712        H  0.56649871  0.14232308  0.81449467     0.07900
H713        H  0.53477490  0.17236252  0.77211393     0.11400
H714        H  0.53149566  0.25740667  0.83764587     0.11600
H715        H  0.56288251  0.22709133  0.88018776     0.07900
C716        C  0.61332716  0.17975141  0.89283644    -0.11200
C717        C  0.63134307  0.16277418  0.91742474    -0.10500
C718        C  0.62304167  0.13015935  0.92605851    -0.01400
C719        C  0.59697096  0.11462181  0.90892372    -0.11600
C720        C  0.57923219  0.13145516  0.88412676    -0.10000
H721        H  0.62009825  0.20492593  0.88677595     0.07900
H722        H  0.65140299  0.17535880  0.93004027     0.11600
H723        H  0.59012669  0.08942437  0.91478689     0.11400
H724        H  0.55896572  0.11898733  0.87173325     0.07900
C725        C  0.44990572  0.16774118  0.66946008    -0.11200
C726        C  0.43093947  0.18495954  0.64560110     0.06000
C727        C  0.42947766  0.21956302  0.64747474    -0.09900
C728        C  0.44633690  0.23649381  0.67288019    -0.11600
C729        C  0.46500370  0.21917250  0.69697577    -0.01400
C730        C  0.46672853  0.18462131  0.69481919    -0.10500
C731        C  0.41229711  0.16661791  0.61940634     0.06000
H732        H  0.41542167  0.23356765  0.62921105     0.07900
H733        H  0.44450218  0.26313952  0.67375740     0.11400
H734        H  0.48086172  0.17048629  0.71291348     0.11600
H735        H  0.45117405  0.14105758  0.66901875     0.07900
C736        C  0.42615049  0.13862894  0.60404555    -0.11200
C737        C  0.40814564  0.12026949  0.58068745    -0.10500
C738        C  0.37592570  0.12959249  0.57187738    -0.01400
C739        C  0.36217099  0.15787979  0.58681784    -0.11600
C740        C  0.38016371  0.17618472  0.61037548    -0.10000
H741        H  0.45105875  0.13096922  0.60996364     0.07900
H742        H  0.41963926  0.09887779  0.56931378     0.11600
H743        H  0.33743466  0.16577711  0.58047148     0.11400
H744        H  0.36865644  0.19741864  0.62203446     0.07900
C745        C  0.25586238  0.36616883  0.83390369    -0.11200
C746        C  0.27252231  0.34594685  0.85709361     0.06000
C747        C  0.30699089  0.34297042  0.85455395    -0.09900
C748        C  0.32431460  0.35955090  0.82922237    -0.11600
C749        C  0.30758538  0.37962063  0.80592991    -0.01400
C750        C  0.27318140  0.38284626  0.80867940    -0.10500
C751        C  0.25386712  0.32738008  0.88319185     0.06000
H752        H  0.32066781  0.32796912  0.87227629     0.07900
H753        H  0.35080843  0.35647473  0.82782978     0.11400
H754        H  0.25949309  0.39807277  0.79116068     0.11600
H755        H  0.22928748  0.36858643  0.83474064     0.07900
C756        C  0.22593878  0.34127900  0.89873838    -0.11200
C757        C  0.20759400  0.32315736  0.92214727    -0.10500
C758        C  0.21694357  0.29084733  0.93068855    -0.01400
C759        C  0.24522936  0.27722358  0.91573904    -0.11600
C760        C  0.26337580  0.29520168  0.89214330    -0.10000
H761        H  0.21832469  0.36624923  0.89295571     0.07900
H762        H  0.18619741  0.33452172  0.93365518     0.11600
H763        H  0.25316434  0.25243920  0.92193179     0.11400
H764        H  0.28444890  0.28354019  0.88036243     0.07900
C765        C  0.30466692  0.48707927  0.65680148    -0.11200
C766        C  0.27112888  0.48000515  0.65101884     0.06000
C767        C  0.25555511  0.45641623  0.67163976    -0.09900
C768        C  0.27307651  0.44018760  0.69714026    -0.11600
C769        C  0.30674506  0.44680460  0.70241955    -0.01400
C770        C  0.32227247  0.47061558  0.68209844    -0.10500
C771        C  0.25253130  0.49724468  0.62368576     0.06000
H772        H  0.22967499  0.45071550  0.66830027     0.07900
H773        H  0.26030859  0.42207270  0.71243212     0.11400
H774        H  0.34806922  0.47655766  0.68574785     0.11600
H775        H  0.31754436  0.50493693  0.64131217     0.07900
C776        C  0.25804132  0.53090696  0.61715813    -0.11200
C777        C  0.24107646  0.54712541  0.59131108    -0.10500
C778        C  0.21788518  0.53025455  0.57139900    -0.01400
C779        C  0.21205330  0.49664941  0.57802122    -0.11600
C780        C  0.22926419  0.48030437  0.60378276    -0.10000
H781        H  0.27527266  0.54490307  0.63231420     0.07900
H782        H  0.24594441  0.57308649  0.58711800     0.11600
H783        H  0.19454663  0.48286973  0.56297314     0.11400
H784        H  0.22472007  0.45425845  0.60776885     0.07900
C785        C  0.44974483  0.65125295  0.82892057    -0.11200
C786        C  0.43295307  0.63429744  0.85466146     0.06000
C787        C  0.43442212  0.59970367  0.85554509    -0.09900
C788        C  0.45200615  0.58236968  0.83098117    -0.11600
C789        C  0.46840303  0.59925400  0.80486961    -0.01400
C790        C  0.46723485  0.63392736  0.80424420    -0.10500
C791        C  0.41370042  0.65266345  0.88030885     0.06000
H792        H  0.42208258  0.58605513  0.87537413     0.07900
H793        H  0.45250898  0.55568681  0.83236898     0.11400
H794        H  0.47950376  0.64772622  0.78448313     0.11600
H795        H  0.44878075  0.67792574  0.82748595     0.07900
C796        C  0.42679439  0.68117005  0.89527175    -0.11200
C797        C  0.40848663  0.69889310  0.91896156    -0.10500
C798        C  0.37659126  0.68858535  0.92816761    -0.01400
C799        C  0.36356701  0.65988054  0.91337832    -0.11600
C800        C  0.38197427  0.64206974  0.88972152    -0.10000
H801        H  0.45134877  0.68962684  0.88881826     0.07900
H802        H  0.41937633  0.72074151  0.93004683     0.11600
H803        H  0.33907077  0.65130490  0.91987719     0.11400
H804        H  0.37117603  0.62032575  0.87831949     0.07900
C805        C  0.57107537  0.59695303  0.65144343    -0.11200
C806        C  0.57106770  0.63162297  0.65051314     0.06000
C807        C  0.55318612  0.64901115  0.67510549    -0.09900
C808        C  0.53555844  0.63220467  0.69997609    -0.11600
C809        C  0.53546271  0.59756520  0.70095015    -0.01400
C810        C  0.55342510  0.58008752  0.67638284    -0.10500
C811        C  0.58910670  0.64977029  0.62373746     0.06000
H812        H  0.55309676  0.67572923  0.67536116     0.07900
H813        H  0.52209734  0.64645061  0.71852342     0.11400
H814        H  0.55392443  0.55336704  0.67640155     0.11600
H815        H  0.58430706  0.58286028  0.63259659     0.07900
C816        C  0.62041236  0.63932915  0.61287452    -0.11200
C817        C  0.63710193  0.65657042  0.58750370    -0.10500
C818        C  0.62279409  0.68457651  0.57250037    -0.01400
C819        C  0.59168503  0.69515166  0.58364763    -0.11600
C820        C  0.57499401  0.67788231  0.60886107    -0.10000
H821        H  0.63213085  0.61803965  0.62421130     0.07900
H822        H  0.66118308  0.64794108  0.57964054     0.11600
H823        H  0.57996964  0.71657541  0.57258199     0.11400
H824        H  0.55071559  0.68626799  0.61633085     0.07900
C825        C  0.22206229  0.34058256  0.10548953    -0.11200
C826        C  0.25308441  0.32995329  0.11670147     0.06000
C827        C  0.26614745  0.30033408  0.10412931    -0.09900
C828        C  0.24826474  0.28141238  0.08103576    -0.11600
C829        C  0.21709048  0.29193681  0.06984914    -0.01400
C830        C  0.20431091  0.32186193  0.08215590    -0.10500
C831        C  0.27131064  0.34908143  0.14236462     0.06000
H832        H  0.28992230  0.29152524  0.11270285     0.07900
H833        H  0.25885362  0.25853878  0.07199338     0.11400
H834        H  0.18051525  0.33081554  0.07384180     0.11600
H835        H  0.21164387  0.36347819  0.11470220     0.07900
C836        C  0.30473224  0.35683545  0.13763927    -0.11200
C837        C  0.32241271  0.37310764  0.16289080    -0.10500
C838        C  0.30703376  0.38169306  0.19345328    -0.01400
C839        C  0.27328252  0.37476459  0.19766447    -0.11600
C840        C  0.25560441  0.35864799  0.17234201    -0.10000
H841        H  0.31719121  0.35007357  0.11448226     0.07900
H842        H  0.34824099  0.37852254  0.15864611     0.11600
H843        H  0.26067169  0.38100044  0.22088099     0.11400
H844        H  0.22987590  0.35272758  0.17658633     0.07900
C845        C  0.27420352  0.50420606  0.40893006    -0.11200
C846        C  0.25813939  0.48900426  0.38156426     0.06000
C847        C  0.22378650  0.49281995  0.37833254    -0.09900
C848        C  0.20596711  0.51112811  0.40189498    -0.11600
C849        C  0.22218999  0.52672604  0.42866330    -0.01400
C850        C  0.25642630  0.52325411  0.43201224    -0.10500
C851        C  0.27709095  0.47026798  0.35577838     0.06000
H852        H  0.21064020  0.48223633  0.35721102     0.07900
H853        H  0.17955734  0.51374530  0.39878215     0.11400
H854        H  0.26929947  0.53476352  0.45284147     0.11600
H855        H  0.30047985  0.50129367  0.41265457     0.07900
C856        C  0.30895943  0.48044688  0.34629443    -0.11200
C857        C  0.32590381  0.46419460  0.32055584    -0.10500
C858        C  0.31112939  0.43782764  0.30330933    -0.01400
C859        C  0.27961521  0.42718036  0.31303661    -0.11600
C860        C  0.26293351  0.44295929  0.33928610    -0.10000
H861        H  0.32047203  0.50166990  0.35793686     0.07900
H862        H  0.35011972  0.47304059  0.31332894     0.11600
H863        H  0.26789820  0.40661062  0.30037027     0.11400
H864        H  0.23882809  0.43385507  0.34647133     0.07900
C865        C  0.40129215  0.69082621  0.12258311    -0.11200
C866        C  0.40401904  0.65617756  0.12086624     0.06000
C867        C  0.38881182  0.63969903  0.09373850    -0.09900
C868        C  0.37160886  0.65731985  0.06906633    -0.11600
C869        C  0.36994150  0.69185754  0.07041367    -0.01400
C870        C  0.38484338  0.70847982  0.09736906    -0.10500
C871        C  0.42324457  0.63742296  0.14669202     0.06000
H872        H  0.39080698  0.61321281  0.09099465     0.07900
H873        H  0.36046206  0.64401753  0.04830848     0.11400
H874        H  0.38342247  0.73511945  0.09911618     0.11600
H875        H  0.41179823  0.70442664  0.14344043     0.07900
C876        C  0.45110822  0.65159558  0.16216820    -0.11200
C877        C  0.46933751  0.63397750  0.18606031    -0.10500
C878        C  0.46061686  0.60149499  0.19463065    -0.01400
C879        C  0.43305568  0.58710375  0.17908828    -0.11600
C880        C  0.41437896  0.60495582  0.15570331    -0.10000
H881        H  0.45930789  0.67615491  0.15546097     0.07900
H882        H  0.49065426  0.64561559  0.19742143     0.11600
H883        H  0.42553134  0.56222518  0.18551073     0.11400
H884        H  0.39275787  0.59333367  0.14501633     0.07900
C885        C  0.57896893  0.60545774  0.33236514    -0.11200
C886        C  0.56495702  0.63347318  0.34784410     0.06000
C887        C  0.53419349  0.64477958  0.33596621    -0.09900
C888        C  0.51820323  0.62879765  0.30938063    -0.11600
C889        C  0.53196909  0.60049252  0.29479454    -0.01400
C890        C  0.56238611  0.58885595  0.30658441    -0.10500
C891        C  0.58237253  0.65077809  0.37600519     0.06000
H892        H  0.52196245  0.66563043  0.34748139     0.07900
H893        H  0.49453996  0.63798185  0.30089508     0.11400
H894        H  0.57361860  0.56719423  0.29543662     0.11600
H895        H  0.60295806  0.59636609  0.33976820     0.07900
C896        C  0.60430615  0.63359835  0.39727645    -0.11200
C897        C  0.62166855  0.65005556  0.42262264    -0.10500
C898        C  0.61687881  0.68389985  0.42801868    -0.01400
C899        C  0.59426604  0.70097209  0.40771956    -0.11600
C900        C  0.57758014  0.68476233  0.38176175    -0.10000
H901        H  0.60807237  0.60731160  0.39465613     0.07900
H902        H  0.63867103  0.63620512  0.43820094     0.11600
H903        H  0.59019853  0.72716598  0.41121707     0.11400
H904        H  0.56158755  0.69927112  0.36578050     0.07900
C905        C  0.72905389  0.51856921  0.09958980    -0.11200
C906        C  0.74616282  0.49898240  0.12310320     0.06000
C907        C  0.78056725  0.49555403  0.11943074    -0.09900
C908        C  0.79724921  0.51105155  0.09287631    -0.11600
C909        C  0.78005546  0.53092486  0.06984737    -0.01400
C910        C  0.74584223  0.53459040  0.07351465    -0.10500
C911        C  0.72800678  0.48164854  0.15070122     0.06000
H912        H  0.79477563  0.48123316  0.13728256     0.07900
H913        H  0.82372111  0.50808617  0.09079878     0.11400
H914        H  0.73194590  0.54952293  0.05588831     0.11600
H915        H  0.70253030  0.52118806  0.10091402     0.07900
C916        C  0.69938590  0.49553052  0.16508149    -0.11200
C917        C  0.68114642  0.47819225  0.18927625    -0.10500
C918        C  0.69163623  0.44704068  0.20031561    -0.01400
C919        C  0.72075192  0.43363304  0.18704929    -0.11600
C920        C  0.73851198  0.45051371  0.16222721    -0.10000
H921        H  0.69098740  0.51981842  0.15767776     0.07900
H922        H  0.65906593  0.48928663  0.19967125     0.11600
H923        H  0.72925147  0.40957557  0.19518314     0.11400
H924        H  0.75999970  0.43866355  0.15150379     0.07900
C925        C  0.68832918  0.33943336  0.34947095    -0.11200
C926        C  0.72299630  0.33903598  0.35019136     0.06000
C927        C  0.74040970  0.35686424  0.32550729    -0.09900
C928        C  0.72360820  0.37476271  0.30081105    -0.11600
C929        C  0.68893567  0.37524254  0.30011274    -0.01400
C930        C  0.67149023  0.35732193  0.32472431    -0.10500
C931        C  0.74099556  0.32029418  0.37665175     0.06000
H932        H  0.76710824  0.35667002  0.32500818     0.07900
H933        H  0.73788774  0.38813610  0.28218911     0.11400
H934        H  0.64478673  0.35714732  0.32497389     0.11600
H935        H  0.67417487  0.32630033  0.36836350     0.07900
C936        C  0.76970207  0.33339536  0.39131287    -0.11200
C937        C  0.78684298  0.31577709  0.41598507    -0.10500
C938        C  0.77565207  0.28465139  0.42671995    -0.01400
C939        C  0.74684952  0.27157960  0.41221709    -0.11600
C940        C  0.72974125  0.28918452  0.38742806    -0.10000
H941        H  0.77873382  0.35752009  0.38401716     0.07900
H942        H  0.80879983  0.32668903  0.42679660     0.11600
H943        H  0.73760592  0.24763764  0.41986507     0.11400
H944        H  0.70795053  0.27821050  0.37634522     0.07900
C945        C  0.56630212  0.22057522  0.14675389    -0.11200
C946        C  0.56796936  0.18596108  0.14675600     0.06000
C947        C  0.55174331  0.16841272  0.17249813    -0.09900
C948        C  0.53451108  0.18508880  0.19785601    -0.11600
C949        C  0.53303286  0.21974499  0.19803799    -0.01400
C950        C  0.54898094  0.23726632  0.17203183    -0.10500
C951        C  0.58650575  0.16811056  0.12005125     0.06000
H952        H  0.55286020  0.14172664  0.17336629     0.07900
H953        H  0.52258294  0.17078297  0.21745479     0.11400
H954        H  0.54829698  0.26396827  0.17124891     0.11600
H955        H  0.57815936  0.23475509  0.12700885     0.07900
C956        C  0.57338550  0.13930334  0.10567972    -0.11200
C957        C  0.59090842  0.12197014  0.08108956    -0.10500
C958        C  0.62203467  0.13298548  0.07019991    -0.01400
C959        C  0.63513727  0.16197689  0.08436596    -0.11600
C960        C  0.61751836  0.17939029  0.10900509    -0.10000
H961        H  0.54935496  0.13027702  0.11327402     0.07900
H962        H  0.57997034  0.09987202  0.07058557     0.11600
H963        H  0.65907474  0.17110342  0.07658708     0.11400
H964        H  0.62840972  0.20135356  0.11985734     0.07900
C965        C  0.41401231  0.13028277  0.38049913    -0.11200
C966        C  0.41679046  0.16495189  0.38218479     0.06000
C967        C  0.40098219  0.18140023  0.40907126    -0.09900
C968        C  0.38237129  0.16391031  0.43281844    -0.11600
C969        C  0.38005820  0.12946428  0.43103260    -0.01400
C970        C  0.39630511  0.11275220  0.40493830    -0.10500
C971        C  0.43540223  0.18385190  0.35577260     0.06000
H972        H  0.40310910  0.20782547  0.41215031     0.07900
H973        H  0.37033228  0.17725537  0.45303805     0.11400
H974        H  0.39457534  0.08614211  0.40295098     0.11600
H975        H  0.42491723  0.11651809  0.35997953     0.07900
C976        C  0.46163282  0.16928164  0.33774590    -0.11200
C977        C  0.47794167  0.18659368  0.31208136    -0.10500
C978        C  0.46909868  0.21923873  0.30433129    -0.01400
C979        C  0.44358799  0.23414946  0.32277857    -0.11600
C980        C  0.42671068  0.21661526  0.34779483    -0.02800
H981        H  0.46988060  0.14453114  0.34346906     0.07900
H982        H  0.49773734  0.17450774  0.29852524     0.11600
H983        H  0.43596780  0.25917951  0.31721984     0.11400
H984        H  0.40627668  0.22871777  0.36019817     0.07900
loop_ 
_geom_bond_atom_site_label_1 
_geom_bond_atom_site_label_2 
_geom_bond_distance 
_geom_bond_site_symmetry_2 
_ccdc_geom_bond_type 
C1            N2   1.361       .  A
C1            N6   1.361       .  A
C1          C978   1.484       .  S
N2            C3   1.359       .  A
C3            N4   1.357       .  A
C3           C28   1.489       .  S
N4            C5   1.358       .  A
C5            N6   1.361       .  A
C5          C949   1.486       .  S
N7           C12   1.358       .  A
N7           C11   1.357       .  A
N7           H39   1.031       .  S
N8           C15   1.353       .  A
N8           C16   1.353       .  A
N9           C14   1.355       .  A
N9           C13   1.356       .  A
N9           H40   1.033       .  S
N10          C17   1.353       .  A
N10          C18   1.352       .  A
C11          C19   1.388       .  A
C11          C27   1.427       .  A
C12          C28   1.427       .  A
C12          C20   1.389       .  A
C13          C21   1.387       .  A
C13          C30   1.420       .  A
C14          C29   1.422       .  A
C14          C22   1.389       .  A
C15          C27   1.422       .  A
C15          C23   1.388       .  A
C16          C30   1.420       .  A
C16          C24   1.386       .  A
C17          C25   1.388       .  A
C17          C28   1.421       .  A
C18          C26   1.387       .  A
C18          C29   1.419       .  A
C19          C20   1.371       .  A
C19          H31   1.081       .  S
C20          H32   1.081       .  S
C21          C22   1.369       .  A
C21          H33   1.082       .  S
C22          H34   1.081       .  S
C23          C24   1.366       .  A
C23          H35   1.080       .  S
C24          H36   1.081       .  S
C25          C26   1.370       .  A
C25          H37   1.082       .  S
C26          H38   1.082       .  S
C27          C43   1.492       .  S
C29          C57   1.481       .  S
C30          C49   1.488       .  S
C41          N42   1.360       .  A
C41          N46   1.358       .  A
C41         C929   1.483       .  S
N42          C43   1.359       .  A
C43          N44   1.361       .  A
N44          C45   1.359       .  A
C45          N46   1.357       .  A
C45         C918   1.475       .  S
C47          N48   1.356       .  A
C47          N52   1.358       .  A
C47         C889   1.473       .  S
N48          C49   1.357       .  A
C49          N50   1.360       .  A
N50          C51   1.361       .  A
C51          N52   1.359       .  A
C51         C878   1.481       .  S
C53          N54   1.359       .  A
C53          N58   1.360       .  A
C53         C838   1.481       .  S
N54          C55   1.358       .  A
C55          N56   1.356       .  A
C55         C858   1.473       .  S
N56          C57   1.356       .  A
C57          N58   1.358       .  A
C59          N60   1.357       .  A
C59          N64   1.360       .  A
C59         C809   1.480       .  S
N60          C61   1.356       .  A
C61          N62   1.356       .  A
C61          C88   1.479       .  S
N62          C63   1.357       .  A
C63          N64   1.359       .  A
C63         C789   1.482       .  S
N65          C70   1.354       .  A
N65          C69   1.357       .  A
N65          H97   1.018       .  S
N66          C73   1.353       .  A
N66          C74   1.352       .  A
N67          C72   1.355       .  A
N67          C71   1.353       .  A
N67          H98   1.019       .  S
N68          C75   1.352       .  A
N68          C76   1.353       .  A
C69          C77   1.389       .  A
C69          C85   1.428       .  A
C70          C86   1.425       .  A
C70          C78   1.388       .  A
C71          C79   1.387       .  A
C71          C88   1.421       .  A
C72          C87   1.424       .  A
C72          C80   1.390       .  A
C73          C85   1.421       .  A
C73          C81   1.388       .  A
C74          C88   1.420       .  A
C74          C82   1.387       .  A
C75          C83   1.388       .  A
C75          C86   1.422       .  A
C76          C84   1.388       .  A
C76          C87   1.422       .  A
C77          C78   1.374       .  A
C77          H89   1.081       .  S
C78          H90   1.082       .  S
C79          C80   1.370       .  A
C79          H91   1.082       .  S
C80          H92   1.080       .  S
C81          C82   1.367       .  A
C81          H93   1.081       .  S
C82          H94   1.081       .  S
C83          C84   1.369       .  A
C83          H95   1.082       .  S
C84          H96   1.081       .  S
C85         C101   1.490       .  S
C86         C107   1.482       .  S
C87         C113   1.485       .  S
C99         N100   1.358       .  A
C99         N104   1.359       .  A
C99         C749   1.481       .  S
N100        C101   1.357       .  A
C101        N102   1.362       .  A
N102        C103   1.361       .  A
C103        N104   1.358       .  A
C103        C769   1.486       .  S
C105        N106   1.357       .  A
C105        N110   1.360       .  A
C105        C729   1.481       .  S
N106        C107   1.356       .  A
C107        N108   1.359       .  A
N108        C109   1.359       .  A
C109        N110   1.359       .  A
C109        C709   1.482       .  S
C111        N112   1.357       .  A
C111        N116   1.357       .  A
C111        C678   1.475       .  S
N112        C113   1.357       .  A
C113        N114   1.357       .  A
N114        C115   1.358       .  A
C115        N116   1.357       .  A
C115        C698   1.478       .  S
C117        N118   1.356       .  A
C117        N122   1.358       .  A
C117        C649   1.472       .  S
N118        C119   1.356       .  A
C119        N120   1.357   1_655  A
C119        C145   1.483       .  S
N120        C121   1.359       .  A
C121        N122   1.360   1_455  A
C121        C629   1.480       .  S
N123        C128   1.354       .  A
N123        C127   1.355       .  A
N123        H155   1.031       .  S
N124        C131   1.353       .  A
N124        C132   1.352       .  A
N125        C130   1.354       .  A
N125        C129   1.353       .  A
N125        H156   1.028       .  S
N126        C133   1.351       .  A
N126        C134   1.353       .  A
C127        C135   1.387       .  A
C127        C143   1.420   1_455  A
C128        C144   1.421       .  A
C128        C136   1.389       .  A
C129        C137   1.389       .  A
C129        C146   1.422       .  A
C130        C145   1.422       .  A
C130        C138   1.389       .  A
C131        C143   1.418       .  A
C131        C139   1.385       .  A
C132        C146   1.423       .  A
C132        C140   1.389       .  A
C133        C141   1.389       .  A
C133        C144   1.420       .  A
C134        C142   1.387       .  A
C134        C145   1.419   1_455  A
C135        C136   1.368       .  A
C135        H147   1.082   1_565  S
C136        H148   1.080       .  S
C137        C138   1.369       .  A
C137        H149   1.081       .  S
C138        H150   1.081       .  S
C139        C140   1.368       .  A
C139        H151   1.082   1_565  S
C140        H152   1.081       .  S
C141        C142   1.368       .  A
C141        H153   1.081       .  S
C142        H154   1.081       .  S
C143        C167   1.485   1_565  S
C144        C159   1.480       .  S
C146        C171   1.481       .  S
C157        N158   1.356       .  A
C157        N162   1.357       .  A
C157        C598   1.469       .  S
N158        C159   1.357       .  A
C159        N160   1.356       .  A
N160        C161   1.357       .  A
C161        N162   1.358       .  A
C161        C609   1.477       .  S
C163        N164   1.361   1_455  A
C163        N168   1.358       .  A
C163        C578   1.478       .  S
N164        C165   1.360       .  A
C165        N166   1.359       .  A
C165        C549   1.479       .  S
N166        C167   1.358       .  A
C167        N168   1.358   1_655  A
C169        N170   1.357       .  A
C169        N174   1.360       .  A
C169        C529   1.481       .  S
N170        C171   1.354       .  A
C171        N172   1.355       .  A
N172        C173   1.356       .  A
C173        N174   1.361       .  A
C173        C509   1.470       .  S
C175        N176   1.358       .  A
C175        N180   1.355   1_455  A
C175        C498   1.478       .  S
N176        C177   1.357   1_455  A
C177        N178   1.355       .  A
C177        C201   1.477   1_545  S
N178        C179   1.357       .  A
C179        N180   1.357       .  A
C179        C478   1.475       .  S
N181        C186   1.356       .  A
N181        C185   1.353       .  A
N181        H213   1.032       .  S
N182        C189   1.351       .  A
N182        C190   1.353       .  A
N183        C188   1.354       .  A
N183        C187   1.356       .  A
N183        H214   1.032       .  S
N184        C191   1.355       .  A
N184        C192   1.353       .  A
C185        C193   1.385       .  A
C185        C201   1.418       .  A
C186        C202   1.426       .  A
C186        C194   1.391       .  A
C187        C195   1.389       .  A
C187        C204   1.423       .  A
C188        C203   1.419       .  A
C188        C196   1.386       .  A
C189        C201   1.414   1_455  A
C189        C197   1.386       .  A
C190        C204   1.418       .  A
C190        C198   1.389       .  A
C191        C199   1.387       .  A
C191        C202   1.421       .  A
C192        C200   1.387       .  A
C192        C203   1.420   1_655  A
C193        C194   1.372       .  A
C193        H205   1.082   1_565  S
C194        H206   1.079       .  S
C195        C196   1.371       .  A
C195        H207   1.080       .  S
C196        H208   1.082       .  S
C197        C198   1.367       .  A
C197        H209   1.082   1_565  S
C198        H210   1.080       .  S
C199        C200   1.368       .  A
C199        H211   1.081       .  S
C200        H212   1.081       .  S
C202        C219   1.490       .  S
C203        C223   1.484       .  S
C204        C231   1.486       .  S
C215        N216   1.358       .  A
C215        N220   1.356       .  A
C215        C449   1.481       .  S
N216        C217   1.360       .  A
C217        N218   1.362       .  A
C217        C429   1.488       .  S
N218        C219   1.363       .  A
C219        N220   1.356       .  A
C221        N222   1.358       .  A
C221        N226   1.360   1_655  A
C221        C418   1.483       .  S
N222        C223   1.357   1_655  A
C223        N224   1.360       .  A
N224        C225   1.360       .  A
C225        N226   1.360       .  A
C225        C389   1.489       .  S
C227        N228   1.359       .  A
C227        N232   1.360       .  A
C227        C349   1.482       .  S
N228        C229   1.359       .  A
C229        N230   1.357       .  A
C229        C369   1.481       .  S
N230        C231   1.356       .  A
C231        N232   1.358       .  A
O233       Ni241   1.914   1_556  S
O233        C243   1.281       .  A
O234       Ni241   1.917       .  S
O234        C244   1.282       .  A
O235       Ni241   1.916       .  S
O235        C245   1.282       .  A
O236       Ni241   1.921   1_556  S
O236        C246   1.282       .  A
O237       Ni242   1.920   1_556  S
O237        C246   1.282       .  A
O238       Ni242   1.917       .  S
O238        C245   1.282       .  A
O239       Ni242   1.907       .  S
O239        C244   1.280       .  A
O240       Ni242   1.910   1_556  S
O240        C243   1.281       .  A
Ni241      Ni242   2.387       .  S
C243        C758   1.476       .  S
C244        C489   1.476       .  S
C245        C829   1.481       .  S
C246        C569   1.478       .  S
O247       Ni255   1.915   1_554  S
O247        C257   1.282       .  A
O248       Ni255   1.912       .  S
O248        C258   1.280       .  A
O249       Ni255   1.914   1_554  S
O249        C259   1.281       .  A
O250       Ni255   1.914       .  S
O250        C260   1.281       .  A
O251       Ni256   1.922       .  S
O251        C260   1.283       .  A
O252       Ni256   1.920   1_554  S
O252        C259   1.282       .  A
O253       Ni256   1.918       .  S
O253        C258   1.282       .  A
O254       Ni256   1.922   1_554  S
O254        C257   1.282       .  A
Ni255      Ni256   2.386       .  S
C257        C958   1.483       .  S
C258        C538   1.480       .  S
C259        C458   1.481       .  S
C260        C718   1.481       .  S
O261       Ni269   1.914   1_554  S
O261        C271   1.282       .  A
O262       Ni269   1.913       .  S
O262        C272   1.281       .  A
O263       Ni269   1.914       .  S
O263        C273   1.280       .  A
O264       Ni269   1.919   1_554  S
O264        C274   1.282       .  A
O265       Ni270   1.916   1_554  S
O265        C274   1.281       .  A
O266       Ni270   1.917       .  S
O266        C273   1.281       .  A
O267       Ni270   1.911       .  S
O267        C272   1.280       .  A
O268       Ni270   1.910   1_554  S
O268        C271   1.280       .  A
Ni269      Ni270   2.389       .  S
C271        C409   1.477       .  S
C272        C669   1.473       .  S
C273        C658   1.471       .  S
C274        C909   1.477       .  S
O275       Ni283   1.909       .  S
O275        C285   1.280       .  A
O276       Ni283   1.913   1_554  S
O276        C286   1.280       .  A
O277       Ni283   1.925   1_554  S
O277        C287   1.284       .  A
O278       Ni283   1.922       .  S
O278        C288   1.283       .  A
O279       Ni284   1.913       .  S
O279        C288   1.281       .  A
O280       Ni284   1.907   1_554  S
O280        C287   1.279       .  A
O281       Ni284   1.922   1_554  S
O281        C286   1.282       .  A
O282       Ni284   1.920       .  S
O282        C285   1.282       .  A
Ni283      Ni284   2.387       .  S
C285        C618   1.477       .  S
C286        C869   1.474       .  S
C287        C378   1.480       .  S
C288        C798   1.482       .  S
O289       Ni297   1.913       .  S
O289        C299   1.281       .  A
O290       Ni297   1.912       .  S
O290        C300   1.280       .  A
O291       Ni297   1.932       .  S
O291        C301   1.284       .  A
O292       Ni297   1.926       .  S
O292        C302   1.283       .  A
O293       Ni298   1.927       .  S
O293        C302   1.284       .  A
O294       Ni298   1.919       .  S
O294        C301   1.282       .  A
O295       Ni298   1.917       .  S
O295        C300   1.281       .  A
O296       Ni298   1.915       .  S
O296        C299   1.281       .  A
Ni297      Ni298   2.387       .  S
C299        C638   1.477       .  S
C300        C849   1.469       .  S
C301        C778   1.488       .  S
C302        C398   1.491       .  S
O303       Ni311   1.917       .  S
O303        C313   1.281       .  A
O304       Ni311   1.917       .  S
O304        C314   1.281       .  A
O305       Ni311   1.914       .  S
O305        C315   1.282       .  A
O306       Ni311   1.917       .  S
O306        C316   1.281       .  A
O307       Ni312   1.916       .  S
O307        C316   1.282       .  A
O308       Ni312   1.915       .  S
O308        C315   1.281       .  A
O309       Ni312   1.916       .  S
O309        C314   1.281       .  A
O310       Ni312   1.915       .  S
O310        C313   1.281       .  A
Ni311      Ni312   2.388       .  S
C313        C589   1.474       .  S
C314        C969   1.473       .  S
C315        C358   1.479       .  S
C316        C738   1.480       .  S
O317       Ni325   1.921       .  S
O317        C327   1.282       .  A
O318       Ni325   1.923       .  S
O318        C328   1.283       .  A
O319       Ni325   1.912       .  S
O319        C329   1.281       .  A
O320       Ni325   1.908       .  S
O320        C330   1.280       .  A
O321       Ni326   1.911       .  S
O321        C330   1.281       .  A
O322       Ni326   1.908       .  S
O322        C329   1.280       .  A
O323       Ni326   1.918       .  S
O323        C328   1.281       .  A
O324       Ni326   1.916       .  S
O324        C327   1.282       .  A
Ni325      Ni326   2.388       .  S
C327        C938   1.483       .  S
C328        C558   1.479       .  S
C329        C689   1.474       .  S
C330        C469   1.472       .  S
O331       Ni339   1.910       .  S
O331        C341   1.280       .  A
O332       Ni339   1.907       .  S
O332        C342   1.279       .  A
O333       Ni339   1.922       .  S
O333        C343   1.283       .  A
O334       Ni339   1.918       .  S
O334        C344   1.283       .  A
O335       Ni340   1.912       .  S
O335        C344   1.280       .  A
O336       Ni340   1.913       .  S
O336        C343   1.281       .  A
O337       Ni340   1.918       .  S
O337        C342   1.282       .  A
O338       Ni340   1.920       .  S
O338        C341   1.283       .  A
Ni339      Ni340   2.388       .  S
C341        C898   1.476       .  S
C342        C518   1.470       .  S
C343        C438   1.483       .  S
C344        C818   1.479       .  S
C345        C346   1.404       .  A
C345        C350   1.399       .  A
C345        H355   1.083       .  S
C346        C351   1.482       .  S
C346        C347   1.404       .  A
C347        C348   1.396       .  A
C347        H352   1.083       .  S
C348        C349   1.405       .  A
C348        H353   1.083       .  S
C349        C350   1.408       .  A
C350        H354   1.083       .  S
C351        C356   1.405       .  A
C351        C360   1.404   1_565  A
C356        C357   1.399       .  A
C356        H361   1.083       .  S
C357        C358   1.407   1_565  A
C357        H362   1.083       .  S
C358        C359   1.405       .  A
C359        C360   1.395       .  A
C359        H363   1.083       .  S
C360        H364   1.083       .  S
C365        C366   1.405       .  A
C365        C370   1.397       .  A
C365        H375   1.083       .  S
C366        C371   1.482       .  S
C366        C367   1.404       .  A
C367        C368   1.397       .  A
C367        H372   1.083       .  S
C368        C369   1.407       .  A
C368        H373   1.083       .  S
C369        C370   1.406       .  A
C370        H374   1.083       .  S
C371        C376   1.404       .  A
C371        C380   1.406       .  A
C376        C377   1.396       .  A
C376        H381   1.083       .  S
C377        C378   1.407       .  A
C377        H382   1.083       .  S
C378        C379   1.404       .  A
C379        C380   1.398       .  A
C379        H383   1.083       .  S
C380        H384   1.083       .  S
C385        C386   1.407       .  A
C385        C390   1.402       .  A
C385        H395   1.083       .  S
C386        C391   1.494       .  S
C386        C387   1.407       .  A
C387        C388   1.400       .  A
C387        H392   1.083       .  S
C388        C389   1.407       .  A
C388        H393   1.083       .  S
C389        C390   1.407       .  A
C390        H394   1.083       .  S
C391        C396   1.407       .  A
C391        C400   1.407       .  A
C396        C397   1.402       .  A
C396        H401   1.083       .  S
C397        C398   1.407       .  A
C397        H402   1.083       .  S
C398        C399   1.407       .  A
C399        C400   1.402       .  A
C399        H403   1.083       .  S
C400        H404   1.083       .  S
C405        C406   1.406       .  A
C405        C410   1.397       .  A
C405        H415   1.083       .  S
C406        C411   1.484       .  S
C406        C407   1.406       .  A
C407        C408   1.396       .  A
C407        H412   1.083       .  S
C408        C409   1.404       .  A
C408        H413   1.083       .  S
C409        C410   1.406       .  A
C410        H414   1.083       .  S
C411        C416   1.405       .  A
C411        C420   1.405       .  A
C416        C417   1.398       .  A
C416        H421   1.083       .  S
C417        C418   1.407       .  A
C417        H422   1.083       .  S
C418        C419   1.405       .  A
C419        C420   1.396       .  A
C419        H423   1.083       .  S
C420        H424   1.083       .  S
C425        C426   1.404       .  A
C425        C430   1.397       .  A
C425        H435   1.083       .  S
C426        C431   1.489       .  S
C426        C427   1.408       .  A
C427        C428   1.402       .  A
C427        H432   1.083       .  S
C428        C429   1.407       .  A
C428        H433   1.083       .  S
C429        C430   1.407       .  A
C430        H434   1.083       .  S
C431        C436   1.407       .  A
C431        C440   1.405       .  A
C436        C437   1.399       .  A
C436        H441   1.083       .  S
C437        C438   1.405       .  A
C437        H442   1.083       .  S
C438        C439   1.407       .  A
C439        C440   1.398       .  A
C439        H443   1.083       .  S
C440        H444   1.083       .  S
C445        C446   1.404       .  A
C445        C450   1.397       .  A
C445        H455   1.083       .  S
C446        C451   1.483       .  S
C446        C447   1.405       .  A
C447        C448   1.397       .  A
C447        H452   1.083       .  S
C448        C449   1.406       .  A
C448        H453   1.083       .  S
C449        C450   1.406       .  A
C450        H454   1.083       .  S
C451        C456   1.406   1_565  A
C451        C460   1.404       .  A
C456        C457   1.398       .  A
C456        H461   1.083       .  S
C457        C458   1.406       .  A
C457        H462   1.083       .  S
C458        C459   1.406       .  A
C459        C460   1.397   1_545  A
C459        H463   1.083   1_545  S
C460        H464   1.083       .  S
C465        C466   1.403       .  A
C465        C470   1.394       .  A
C465        H475   1.083       .  S
C466        C471   1.475       .  S
C466        C467   1.404       .  A
C467        C468   1.393       .  A
C467        H472   1.083       .  S
C468        C469   1.404       .  A
C468        H473   1.083       .  S
C469        C470   1.405       .  A
C470        H474   1.083       .  S
C471        C476   1.404       .  A
C471        C480   1.402       .  A
C476        C477   1.395       .  A
C476        H481   1.083       .  S
C477        C478   1.406       .  A
C477        H482   1.083       .  S
C478        C479   1.405       .  A
C479        C480   1.392       .  A
C479        H483   1.083       .  S
C480        H484   1.083       .  S
C485        C486   1.405       .  A
C485        C490   1.396       .  A
C485        H495   1.083       .  S
C486        C491   1.480       .  S
C486        C487   1.404       .  A
C487        C488   1.394       .  A
C487        H492   1.083       .  S
C488        C489   1.405       .  A
C488        H493   1.083       .  S
C489        C490   1.404       .  A
C490        H494   1.083       .  S
C491        C496   1.404       .  A
C491        C500   1.404       .  A
C496        C497   1.396       .  A
C496        H501   1.083       .  S
C497        C498   1.407       .  A
C497        H502   1.083       .  S
C498        C499   1.404       .  A
C499        C500   1.394       .  A
C499        H503   1.083       .  S
C500        H504   1.083       .  S
C505        C506   1.410       .  A
C505        C510   1.396       .  A
C505        H515   1.082       .  S
C506        C511   1.490       .  S
C506        C507   1.408       .  A
C507        C508   1.395       .  A
C507        H512   1.082       .  S
C508        C509   1.403       .  A
C508        H513   1.083       .  S
C509        C510   1.400       .  A
C510        H514   1.083       .  S
C511        C516   1.407       .  A
C511        C520   1.410       .  A
C516        C517   1.393       .  A
C516        H521   1.082       .  S
C517        C518   1.402       .  A
C517        H522   1.083       .  S
C518        C519   1.401       .  A
C519        C520   1.398       .  A
C519        H523   1.083       .  S
C520        H524   1.082       .  S
C525        C526   1.408       .  A
C525        C530   1.400       .  A
C525        H535   1.083       .  S
C526        C531   1.486       .  S
C526        C527   1.404       .  A
C527        C528   1.393       .  A
C527        H532   1.083       .  S
C528        C529   1.406       .  A
C528        H533   1.083       .  S
C529        C530   1.406       .  A
C530        H534   1.083       .  S
C531        C536   1.407   1_565  A
C531        C540   1.405       .  A
C536        C537   1.396       .  A
C536        H541   1.083       .  S
C537        C538   1.404       .  A
C537        H542   1.083       .  S
C538        C539   1.406       .  A
C539        C540   1.398   1_545  A
C539        H543   1.083   1_545  S
C540        H544   1.083       .  S
C545        C546   1.408       .  A
C545        C550   1.398       .  A
C545        H555   1.082       .  S
C546        C551   1.493       .  S
C546        C547   1.409       .  A
C547        C548   1.401       .  A
C547        H552   1.082       .  S
C548        C549   1.404       .  A
C548        H553   1.083       .  S
C549        C550   1.403       .  A
C550        H554   1.083       .  S
C551        C556   1.409       .  A
C551        C560   1.408       .  A
C556        C557   1.399       .  A
C556        H561   1.082       .  S
C557        C558   1.403       .  A
C557        H562   1.083       .  S
C558        C559   1.404       .  A
C559        C560   1.400       .  A
C559        H563   1.083       .  S
C560        H564   1.082       .  S
C565        C566   1.410       .  A
C565        C570   1.399       .  A
C565        H575   1.082       .  S
C566        C571   1.496       .  S
C566        C567   1.409       .  A
C567        C568   1.400       .  A
C567        H572   1.082       .  S
C568        C569   1.404       .  A
C568        H573   1.083       .  S
C569        C570   1.402       .  A
C570        H574   1.083       .  S
C571        C576   1.409       .  A
C571        C580   1.410       .  A
C576        C577   1.397       .  A
C576        H581   1.082       .  S
C577        C578   1.401       .  A
C577        H582   1.083   1_455  S
C578        C579   1.404       .  A
C579        C580   1.401       .  A
C579        H583   1.083       .  S
C580        H584   1.082       .  S
C585        C586   1.407   1_545  A
C585        C590   1.397       .  A
C585        H595   1.082       .  S
C586        C591   1.487       .  S
C586        C587   1.408       .  A
C587        C588   1.395   1_565  A
C587        H592   1.082       .  S
C588        C589   1.402       .  A
C588        H593   1.083       .  S
C589        C590   1.404       .  A
C590        H594   1.083       .  S
C591        C596   1.408       .  A
C591        C600   1.407       .  A
C596        C597   1.397       .  A
C596        H601   1.082   1_565  S
C597        C598   1.402       .  A
C597        H602   1.083       .  S
C598        C599   1.401       .  A
C599        C600   1.395       .  A
C599        H603   1.083       .  S
C600        H604   1.082       .  S
C605        C606   1.405       .  A
C605        C610   1.396       .  A
C605        H615   1.083       .  S
C606        C611   1.481       .  S
C606        C607   1.405       .  A
C607        C608   1.394       .  A
C607        H612   1.083       .  S
C608        C609   1.405       .  A
C608        H613   1.083       .  S
C609        C610   1.406       .  A
C610        H614   1.083       .  S
C611        C616   1.404       .  A
C611        C620   1.406       .  A
C616        C617   1.393       .  A
C616        H621   1.083       .  S
C617        C618   1.405       .  A
C617        H622   1.083       .  S
C618        C619   1.406       .  A
C619        C620   1.399       .  A
C619        H623   1.083       .  S
C620        H624   1.083       .  S
C625        C626   1.406       .  A
C625        C630   1.397       .  A
C625        H635   1.083       .  S
C626        C631   1.485       .  S
C626        C627   1.406       .  A
C627        C628   1.396       .  A
C627        H632   1.083       .  S
C628        C629   1.405       .  A
C628        H633   1.083       .  S
C629        C630   1.406       .  A
C630        H634   1.083       .  S
C631        C636   1.405       .  A
C631        C640   1.406       .  A
C636        C637   1.396       .  A
C636        H641   1.083       .  S
C637        C638   1.404       .  A
C637        H642   1.083       .  S
C638        C639   1.405       .  A
C639        C640   1.398       .  A
C639        H643   1.083       .  S
C640        H644   1.083       .  S
C645        C646   1.409       .  A
C645        C650   1.398       .  A
C645        H655   1.082       .  S
C646        C651   1.489       .  S
C646        C647   1.407       .  A
C647        C648   1.395       .  A
C647        H652   1.082       .  S
C648        C649   1.402       .  A
C648        H653   1.083       .  S
C649        C650   1.402       .  A
C650        H654   1.083       .  S
C651        C656   1.407       .  A
C651        C660   1.408       .  A
C656        C657   1.397       .  A
C656        H661   1.082       .  S
C657        C658   1.402       .  A
C657        H662   1.083       .  S
C658        C659   1.401       .  A
C659        C660   1.397       .  A
C659        H663   1.083       .  S
C660        H664   1.082       .  S
C665        C666   1.405       .  A
C665        C670   1.395       .  A
C665        H675   1.083       .  S
C666        C671   1.480       .  S
C666        C667   1.405       .  A
C667        C668   1.395       .  A
C667        H672   1.083       .  S
C668        C669   1.404       .  A
C668        H673   1.083       .  S
C669        C670   1.404       .  A
C670        H674   1.083       .  S
C671        C676   1.405       .  A
C671        C680   1.405       .  A
C676        C677   1.394       .  A
C676        H681   1.083       .  S
C677        C678   1.405       .  A
C677        H682   1.083       .  S
C678        C679   1.404       .  A
C679        C680   1.395       .  A
C679        H683   1.083       .  S
C680        H684   1.083       .  S
C685        C686   1.405       .  A
C685        C690   1.394       .  A
C685        H695   1.083       .  S
C686        C691   1.481       .  S
C686        C687   1.406       .  A
C687        C688   1.395       .  A
C687        H692   1.083       .  S
C688        C689   1.404       .  A
C688        H693   1.083       .  S
C689        C690   1.405       .  A
C690        H694   1.083       .  S
C691        C696   1.405       .  A
C691        C700   1.404       .  A
C696        C697   1.396       .  A
C696        H701   1.083       .  S
C697        C698   1.406       .  A
C697        H702   1.083       .  S
C698        C699   1.405       .  A
C699        C700   1.394       .  A
C699        H703   1.083       .  S
C700        H704   1.083       .  S
C705        C706   1.405       .  A
C705        C710   1.399       .  A
C705        H715   1.083       .  S
C706        C711   1.484       .  S
C706        C707   1.405       .  A
C707        C708   1.398       .  A
C707        H712   1.083       .  S
C708        C709   1.406       .  A
C708        H713   1.083       .  S
C709        C710   1.406       .  A
C710        H714   1.083       .  S
C711        C716   1.406       .  A
C711        C720   1.404       .  A
C716        C717   1.400       .  A
C716        H721   1.083       .  S
C717        C718   1.406       .  A
C717        H722   1.083       .  S
C718        C719   1.406       .  A
C719        C720   1.397       .  A
C719        H723   1.083       .  S
C720        H724   1.083       .  S
C725        C726   1.405       .  A
C725        C730   1.395       .  A
C725        H735   1.083       .  S
C726        C731   1.485       .  S
C726        C727   1.405       .  A
C727        C728   1.398       .  A
C727        H732   1.083       .  S
C728        C729   1.407       .  A
C728        H733   1.083       .  S
C729        C730   1.404       .  A
C730        H734   1.083       .  S
C731        C736   1.405       .  A
C731        C740   1.406       .  A
C736        C737   1.395       .  A
C736        H741   1.083       .  S
C737        C738   1.405       .  A
C737        H742   1.083       .  S
C738        C739   1.406       .  A
C739        C740   1.399       .  A
C739        H743   1.083       .  S
C740        H744   1.083       .  S
C745        C746   1.405       .  A
C745        C750   1.396       .  A
C745        H755   1.083       .  S
C746        C751   1.485       .  S
C746        C747   1.406       .  A
C747        C748   1.397       .  A
C747        H752   1.083       .  S
C748        C749   1.406       .  A
C748        H753   1.083       .  S
C749        C750   1.405       .  A
C750        H754   1.083       .  S
C751        C756   1.407       .  A
C751        C760   1.405       .  A
C756        C757   1.397       .  A
C756        H761   1.083       .  S
C757        C758   1.405       .  A
C757        H762   1.083       .  S
C758        C759   1.404       .  A
C759        C760   1.395       .  A
C759        H763   1.083       .  S
C760        H764   1.082       .  S
C765        C766   1.409       .  A
C765        C770   1.401       .  A
C765        H775   1.083       .  S
C766        C771   1.495       .  S
C766        C767   1.407       .  A
C767        C768   1.401       .  A
C767        H772   1.083       .  S
C768        C769   1.407       .  A
C768        H773   1.083       .  S
C769        C770   1.405       .  A
C770        H774   1.083       .  S
C771        C776   1.406       .  A
C771        C780   1.409       .  A
C776        C777   1.399       .  A
C776        H781   1.083       .  S
C777        C778   1.406       .  A
C777        H782   1.083       .  S
C778        C779   1.406       .  A
C779        C780   1.404       .  A
C779        H783   1.083       .  S
C780        H784   1.083       .  S
C785        C786   1.405       .  A
C785        C790   1.398       .  A
C785        H795   1.083       .  S
C786        C791   1.483       .  S
C786        C787   1.403       .  A
C787        C788   1.397       .  A
C787        H792   1.083       .  S
C788        C789   1.407       .  A
C788        H793   1.083       .  S
C789        C790   1.406       .  A
C790        H794   1.083       .  S
C791        C796   1.403       .  A
C791        C800   1.406       .  A
C796        C797   1.396       .  A
C796        H801   1.083       .  S
C797        C798   1.407       .  A
C797        H802   1.083       .  S
C798        C799   1.406       .  A
C799        C800   1.399       .  A
C799        H803   1.083       .  S
C800        H804   1.083       .  S
C805        C806   1.405       .  A
C805        C810   1.398       .  A
C805        H815   1.083       .  S
C806        C811   1.483       .  S
C806        C807   1.405       .  A
C807        C808   1.394       .  A
C807        H812   1.083       .  S
C808        C809   1.404       .  A
C808        H813   1.083       .  S
C809        C810   1.408       .  A
C810        H814   1.083       .  S
C811        C816   1.406       .  A
C811        C820   1.405       .  A
C816        C817   1.398       .  A
C816        H821   1.083       .  S
C817        C818   1.407       .  A
C817        H822   1.083       .  S
C818        C819   1.404       .  A
C819        C820   1.394       .  A
C819        H823   1.083       .  S
C820        H824   1.083       .  S
C825        C826   1.403       .  A
C825        C830   1.397       .  A
C825        H835   1.083       .  S
C826        C831   1.478       .  S
C826        C827   1.404       .  A
C827        C828   1.398       .  A
C827        H832   1.083       .  S
C828        C829   1.407       .  A
C828        H833   1.083       .  S
C829        C830   1.406       .  A
C830        H834   1.083       .  S
C831        C836   1.403       .  A
C831        C840   1.403       .  A
C836        C837   1.398       .  A
C836        H841   1.083       .  S
C837        C838   1.407       .  A
C837        H842   1.083       .  S
C838        C839   1.407       .  A
C839        C840   1.397       .  A
C839        H843   1.083       .  S
C840        H844   1.083       .  S
C845        C846   1.408       .  A
C845        C850   1.398       .  A
C845        H855   1.082       .  S
C846        C851   1.488       .  S
C846        C847   1.408       .  A
C847        C848   1.395       .  A
C847        H852   1.082       .  S
C848        C849   1.400       .  A
C848        H853   1.083       .  S
C849        C850   1.402       .  A
C850        H854   1.083       .  S
C851        C856   1.407       .  A
C851        C860   1.408       .  A
C856        C857   1.396       .  A
C856        H861   1.082       .  S
C857        C858   1.403       .  A
C857        H862   1.083       .  S
C858        C859   1.402       .  A
C859        C860   1.396       .  A
C859        H863   1.083       .  S
C860        H864   1.082       .  S
C865        C866   1.410       .  A
C865        C870   1.399       .  A
C865        H875   1.082       .  S
C866        C871   1.495       .  S
C866        C867   1.409       .  A
C867        C868   1.398       .  A
C867        H872   1.082       .  S
C868        C869   1.402       .  A
C868        H873   1.083       .  S
C869        C870   1.401       .  A
C870        H874   1.083       .  S
C871        C876   1.409       .  A
C871        C880   1.409       .  A
C876        C877   1.398       .  A
C876        H881   1.082       .  S
C877        C878   1.404       .  A
C877        H882   1.083       .  S
C878        C879   1.404       .  A
C879        C880   1.400       .  A
C879        H883   1.083       .  S
C880        H884   1.082       .  S
C885        C886   1.410       .  A
C885        C890   1.397       .  A
C885        H895   1.081       .  S
C886        C891   1.497       .  S
C886        C887   1.411       .  A
C887        C888   1.398       .  A
C887        H892   1.081       .  S
C888        C889   1.401       .  A
C888        H893   1.083       .  S
C889        C890   1.401       .  A
C890        H894   1.083       .  S
C891        C896   1.410       .  A
C891        C900   1.410       .  A
C896        C897   1.397       .  A
C896        H901   1.081       .  S
C897        C898   1.402       .  A
C897        H902   1.083       .  S
C898        C899   1.403       .  A
C899        C900   1.397       .  A
C899        H903   1.083       .  S
C900        H904   1.081       .  S
C905        C906   1.408       .  A
C905        C910   1.397       .  A
C905        H915   1.082       .  S
C906        C911   1.493       .  S
C906        C907   1.409       .  A
C907        C908   1.399       .  A
C907        H912   1.082       .  S
C908        C909   1.404       .  A
C908        H913   1.083       .  S
C909        C910   1.403       .  A
C910        H914   1.083       .  S
C911        C916   1.410       .  A
C911        C920   1.408       .  A
C916        C917   1.399       .  A
C916        H921   1.082       .  S
C917        C918   1.402       .  A
C917        H922   1.083       .  S
C918        C919   1.402       .  A
C919        C920   1.397       .  A
C919        H923   1.083       .  S
C920        H924   1.082       .  S
C925        C926   1.406       .  A
C925        C930   1.399       .  A
C925        H935   1.083       .  S
C926        C931   1.487       .  S
C926        C927   1.406       .  A
C927        C928   1.397       .  A
C927        H932   1.083       .  S
C928        C929   1.406       .  A
C928        H933   1.083       .  S
C929        C930   1.406       .  A
C930        H934   1.083       .  S
C931        C936   1.406       .  A
C931        C940   1.406       .  A
C936        C937   1.397       .  A
C936        H941   1.083       .  S
C937        C938   1.406       .  A
C937        H942   1.083       .  S
C938        C939   1.406       .  A
C939        C940   1.399       .  A
C939        H943   1.083       .  S
C940        H944   1.083       .  S
C945        C946   1.404       .  A
C945        C950   1.398       .  A
C945        H955   1.083       .  S
C946        C951   1.487       .  S
C946        C947   1.406       .  A
C947        C948   1.399       .  A
C947        H952   1.083       .  S
C948        C949   1.406       .  A
C948        H953   1.083       .  S
C949        C950   1.408       .  A
C950        H954   1.083       .  S
C951        C956   1.404       .  A
C951        C960   1.407       .  A
C956        C957   1.396       .  A
C956        H961   1.083       .  S
C957        C958   1.406       .  A
C957        H962   1.083       .  S
C958        C959   1.407       .  A
C959        C960   1.401       .  A
C959        H963   1.083       .  S
C960        H964   1.083       .  S
C965        C966   1.411       .  A
C965        C970   1.399       .  A
C965        H975   1.081       .  S
C966        C971   1.500       .  S
C966        C967   1.411       .  A
C967        C968   1.398       .  A
C967        H972   1.081       .  S
C968        C969   1.401       .  A
C968        H973   1.083       .  S
C969        C970   1.401       .  A
C970        H974   1.083       .  S
C971        C976   1.411       .  A
C971        C980   1.410       .  A
C976        C977   1.401       .  A
C976        H981   1.081       .  S
C977        C978   1.405       .  A
C977        H982   1.083       .  S
C978        C979   1.404       .  A
C979        C980   1.398       .  A
C979        H983   1.083       .  S
C980        H984   1.081       .  S
