geometry optimzed in LAMMPS
_audit_creation_date              2020-11-30 
_audit_creation_method            'lammps2cif' 
_symmetry_space_group_name_H-M    'P1' 
_symmetry_Int_Tables_number       1 
_symmetry_cell_setting            triclinic 
loop_ 
_symmetry_equiv_pos_as_xyz 
  x,y,z 
_cell_length_a                    64.1822399 
_cell_length_b                    64.27797749107631 
_cell_length_c                    97.58620568229624 
_cell_angle_alpha                 89.94590726696161 
_cell_angle_beta                  90.02000714467742 
_cell_angle_gamma                 120.00065221468904 
loop_ 
_atom_site_label 
_atom_site_type_symbol 
_atom_site_fract_x 
_atom_site_fract_y 
_atom_site_fract_z 
_atom_site_charge 
In1        In  0.98010240  0.74823394  0.32392543     1.36900
C2          C  0.97800539  0.73384436  0.29795980     0.78100
O3          O  0.94244630  0.73433103  0.33203379    -0.60400
O4          O  0.95675748  0.76371794  0.31829841    -0.51300
C5          C  0.98639838  0.72352562  0.34410823     0.70700
O6          O  0.98434481  0.71748302  0.33165790    -0.46200
C7          C  0.01911193  0.79146123  0.32663720     0.75400
O8          O  0.99633679  0.75136674  0.30310179    -0.58000
O9          O  0.99805185  0.78820993  0.32730985    -0.48100
O10         O  0.96125137  0.72248829  0.30643376    -0.54400
C11         C  0.93886408  0.74899705  0.32526007     0.85600
O12         O  0.98390784  0.74151890  0.34624484    -0.56300
O13         O  0.02004808  0.77250752  0.32497649    -0.59600
In14       In  0.98862273  0.75383538  0.17051095     1.36900
C15         C  0.97567627  0.73897896  0.19627495     0.78100
O16         O  0.02313417  0.78315151  0.17941467    -0.60400
O17         O  0.01442206  0.78711284  0.15905006    -0.51300
C18         C  0.00173981  0.72896650  0.15431208     0.70700
O19         O  0.01121477  0.73691444  0.16585154    -0.46200
C20         C  0.94965952  0.75526790  0.16239157     0.75400
O21         O  0.97804818  0.72608350  0.18736402    -0.58000
O22         O  0.96962766  0.77386912  0.16467278    -0.48100
O23         O  0.97989844  0.75913147  0.19188769    -0.54400
C24         C  0.02942197  0.79581605  0.16870875     0.85600
O25         O  0.98461062  0.73253541  0.15151023    -0.56300
O26         O  0.94996738  0.73589933  0.16386317    -0.59600
In27       In  0.22742388  0.99320270  0.16596261     1.36900
C28         C  0.23374166  0.99238699  0.19296406     0.78100
O29         O  0.24880995  0.03382992  0.16503270    -0.60400
O30         O  0.21140075  0.01655823  0.16177912    -0.51300
C31         C  0.25235766  0.98561819  0.14679709     0.70700
O32         O  0.25828089  0.98825984  0.15925227    -0.46200
C33         C  0.18613520  0.95234670  0.16259900     0.75400
O34         O  0.25089787  0.99947908  0.18457371    -0.58000
O35         O  0.18863333  0.97263434  0.15978092    -0.48100
O36         O  0.21366324  0.98579288  0.18746317    -0.54400
C37         C  0.23074013  0.03619167  0.16286689     0.85600
O38         O  0.23483484  0.98859406  0.14409548    -0.56300
O39         O  0.20507221  0.95306971  0.16686861    -0.59600
In40       In  0.22009616  0.98747434  0.32259714     1.36900
C41         C  0.22967300  0.99034809  0.29589607     0.78100
O42         O  0.19484193  0.94911706  0.31719773    -0.60400
O43         O  0.18143136  0.96672958  0.32959350    -0.51300
C44         C  0.24224039  0.97754334  0.34252376     0.70700
O45         O  0.24948497  0.98120614  0.33027509    -0.46200
C46         C  0.22919113  0.03240289  0.32619718     0.75400
O47         O  0.24077399  0.98492505  0.30457881    -0.58000
O48         O  0.20827250  0.01455748  0.32523412    -0.48100
O49         O  0.21394868  0.99430443  0.30098724    -0.54400
C50         C  0.17709963  0.94758983  0.32359487     0.85600
O51         O  0.22417034  0.97995752  0.34460135    -0.56300
O52         O  0.24560695  0.02703989  0.32609666    -0.59600
In53       In  0.25103103  0.24004943  0.32414961     1.36900
C54         C  0.26096055  0.25118391  0.29772412     0.78100
O55         O  0.26905501  0.21805241  0.32069807    -0.60400
O56         O  0.23885474  0.20401056  0.33376497    -0.51300
C57         C  0.27764010  0.27528720  0.34176426     0.70700
O58         O  0.27164915  0.27907315  0.33010645    -0.46200
C59         C  0.20667574  0.23310441  0.32793869     0.75400
O60         O  0.27715849  0.25744673  0.30669265    -0.58000
O61         O  0.21095879  0.21986169  0.32031424    -0.48100
O62         O  0.23992469  0.24012236  0.30247265    -0.54400
C63         C  0.25443730  0.20062036  0.32793911     0.85600
O64         O  0.27111253  0.25353174  0.34404441    -0.56300
O65         O  0.22501009  0.24921891  0.33396655    -0.59600
In66       In  0.24243166  0.23975000  0.17136520     1.36900
C67         C  0.26259037  0.25562451  0.19585930     0.78100
O68         O  0.21419567  0.24583487  0.16174005    -0.60400
O69         O  0.20499202  0.22521272  0.17985546    -0.51300
C70         C  0.26600474  0.27108422  0.15141764     0.70700
O71         O  0.26881153  0.27700366  0.16391855    -0.46200
C72         C  0.23950773  0.19733958  0.16726749     0.75400
O73         O  0.26802706  0.24323171  0.18824992    -0.58000
O74         O  0.22332431  0.19955628  0.17324090    -0.48100
O75         O  0.24818343  0.26113238  0.19048696    -0.54400
C76         C  0.19845161  0.23458633  0.17071405     0.85600
O77         O  0.25191926  0.24900636  0.14931028    -0.56300
O78         O  0.25700651  0.21684243  0.16311918    -0.59600
In79       In  0.99942593  0.23382142  0.17365374     1.36900
C80         C  0.99394824  0.23764034  0.20047797     0.78100
O81         O  0.95934835  0.21687150  0.17142603    -0.60400
O82         O  0.97581697  0.19681984  0.16535397    -0.51300
C83         C  0.00929233  0.26617792  0.15391569     0.70700
O84         O  0.00409564  0.26887544  0.16600341    -0.46200
C85         C  0.04089484  0.23375466  0.17416662     0.75400
O86         O  0.99983394  0.25489298  0.19227854    -0.58000
O87         O  0.02109717  0.21534903  0.17129450    -0.48100
O88         O  0.99041849  0.21852331  0.19484345    -0.54400
C89         C  0.95651882  0.19721127  0.16691927     0.85600
O90         O  0.00784108  0.24616560  0.15176818    -0.56300
O91         O  0.03920557  0.25192080  0.17708066    -0.59600
In92       In  0.00860650  0.23527866  0.33071477     1.36900
C93         C  0.00383067  0.23710325  0.30358991     0.78100
O94         O  0.04865239  0.25342711  0.32801133    -0.60400
O95         O  0.03070092  0.21800917  0.33584567    -0.51300
C96         C  0.01593025  0.26729949  0.35010352     0.70700
O97         O  0.01615087  0.27183876  0.33748581    -0.46200
C98         C  0.96479980  0.19949561  0.33683429     0.75400
O99         O  0.00422014  0.25272659  0.31159488    -0.58000
O100        O  0.98322970  0.19724977  0.33696656    -0.48100
O101        O  0.00562234  0.22073068  0.30958621    -0.54400
C102        C  0.05043338  0.23577828  0.33211455     0.85600
O103        O  0.01171174  0.24631682  0.35264221    -0.56300
O104        O  0.96897563  0.22031449  0.33381496    -0.59600
In105      In  0.76215811  0.01425975  0.33080516     1.36900
C106        C  0.75983894  0.02003396  0.30407200     0.78100
O107        O  0.78069926  0.05447479  0.33223280    -0.60400
O108        O  0.79816550  0.03685520  0.34069490    -0.51300
C109        C  0.72859551  0.00545750  0.34943837     0.70700
O110        O  0.72728042  0.01154125  0.33732911    -0.46200
C111        C  0.76050220  0.97194971  0.32987306     0.75400
O112        O  0.74256724  0.01554704  0.31200983    -0.58000
O113        O  0.77931637  0.99113968  0.33314485    -0.48100
O114        O  0.77815486  0.02183261  0.30993975    -0.54400
C115        C  0.79925993  0.05656120  0.33796286     0.85600
O116        O  0.74774512  0.00529306  0.35205815    -0.56300
O117        O  0.74289552  0.97470341  0.32706546    -0.59600
In118      In  0.75764124  0.00143158  0.17456258     1.36900
C119        C  0.75471893  0.00811855  0.20128369     0.78100
O120        O  0.74222285  0.96269892  0.18007926    -0.60400
O121        O  0.77220268  0.97842410  0.16667239    -0.51300
C122        C  0.72328396  0.99111552  0.15584555     0.70700
O123        O  0.71921250  0.98988335  0.16855573    -0.46200
C124        C  0.79770102  0.04285092  0.16912577     0.75400
O125        O  0.74381883  0.01358321  0.19247160    -0.58000
O126        O  0.79749729  0.02342157  0.17127107    -0.48100
O127        O  0.76685168  0.99952302  0.19626157    -0.54400
C128        C  0.75720106  0.95991415  0.17313206     0.85600
O129        O  0.74502890  0.99866291  0.15292215    -0.56300
O130        O  0.77718097  0.04097512  0.16954786    -0.59600
In131      In  0.75469361  0.75986791  0.16742896     1.36900
C132        C  0.74789791  0.75189942  0.19426209     0.78100
O133        O  0.77494817  0.73990615  0.16860931    -0.60400
O134        O  0.79046554  0.77208839  0.15712513    -0.51300
C135        C  0.72307287  0.73305251  0.14818844     0.70700
O136        O  0.72260769  0.72534104  0.16013291    -0.46200
C137        C  0.75625099  0.80217730  0.16753607     0.75400
O138        O  0.73122626  0.74110572  0.18564484    -0.58000
O139        O  0.77453883  0.80007632  0.16566930    -0.48100
O140        O  0.76799373  0.76637696  0.18903504    -0.54400
C141        C  0.79271997  0.75496646  0.16170352     0.85600
O142        O  0.73994264  0.75418328  0.14617937    -0.56300
O143        O  0.73705072  0.78243902  0.16913763    -0.59600
In144      In  0.74968323  0.76815673  0.32371089     1.36900
C145        C  0.74341810  0.76074007  0.29683184     0.78100
O146        O  0.73549822  0.79313141  0.31947773    -0.60400
O147        O  0.76621576  0.80563205  0.33220439    -0.51300
C148        C  0.71776884  0.74400970  0.34357827     0.70700
O149        O  0.71231074  0.74091930  0.33102877    -0.46200
C150        C  0.78776574  0.76177186  0.32568427     0.75400
O151        O  0.73059845  0.74463948  0.30542599    -0.58000
O152        O  0.78937678  0.78210012  0.32655940    -0.48100
O153        O  0.75915214  0.78018027  0.30211639    -0.54400
C154        C  0.75137397  0.81024151  0.32644092     0.85600
O155        O  0.73965597  0.75873109  0.34577604    -0.56300
O156        O  0.76647230  0.74469602  0.32438637    -0.59600
In157      In  0.44086567  0.33861137  0.94135065     1.36900
C158        C  0.41692576  0.34787780  0.96081749     0.78100
O159        O  0.47858753  0.36400390  0.94903753    -0.60400
O160        O  0.46730287  0.37242722  0.93063239    -0.51300
C161        C  0.45142576  0.30324576  0.94294995     0.70700
O162        O  0.44667731  0.31193026  0.95325531    -0.46200
C163        C  0.40955039  0.32473356  0.92066281     0.75400
O164        O  0.42091584  0.33062041  0.96156795    -0.58000
O165        O  0.43025592  0.34295116  0.92014661    -0.48100
O166        O  0.42547541  0.36042577  0.95020278    -0.54400
C167        C  0.48400810  0.37847406  0.93916206     0.85600
O168        O  0.45123415  0.31305583  0.93178779    -0.56300
O169        O  0.40500829  0.31314061  0.93175885    -0.59600
In170      In  0.67611001  0.58234574  0.93604874     1.36900
C171        C  0.68659488  0.61089417  0.91406640     0.78100
O172        O  0.66276184  0.60647880  0.94349021    -0.60400
O173        O  0.67391604  0.58986182  0.95828573    -0.51300
C174        C  0.63784684  0.53810971  0.93504549     0.70700
O175        O  0.65367168  0.54623605  0.92578099    -0.46200
C176        C  0.71488909  0.57844691  0.94107125     0.75400
O177        O  0.70176493  0.61326649  0.92299258    -0.58000
O178        O  0.71154662  0.59437399  0.94638837    -0.48100
O179        O  0.66576035  0.59346486  0.91627795    -0.54400
C180        C  0.66556506  0.60363437  0.95601609     0.85600
O181        O  0.64166453  0.55274181  0.94458089    -0.56300
O182        O  0.69792380  0.56405140  0.93344187    -0.59600
In183      In  0.33346171  0.42389477  0.05414314     1.36900
C184        C  0.34660549  0.40181567  0.03582352     0.78100
O185        O  0.35824810  0.45815614  0.04291923    -0.60400
O186        O  0.36403564  0.45631265  0.06412288    -0.51300
C187        C  0.29522733  0.43008083  0.05353898     0.70700
O188        O  0.30269190  0.42419747  0.04310516    -0.46200
C189        C  0.32241512  0.39229428  0.07444446     0.75400
O190        O  0.32729544  0.40242334  0.03477290    -0.58000
O191        O  0.33980584  0.41354743  0.07507891    -0.48100
O192        O  0.35889905  0.41251475  0.04623706    -0.54400
C193        C  0.37115033  0.46845730  0.05322992     0.85600
O194        O  0.30790503  0.43360932  0.06407021    -0.56300
O195        O  0.31065279  0.38739016  0.06341525    -0.59600
In196      In  0.57282071  0.66429543  0.05201603     1.36900
C197        C  0.59762211  0.67020044  0.07511558     0.78100
O198        O  0.57326014  0.64662132  0.03220047    -0.60400
O199        O  0.60646209  0.67364978  0.04005997    -0.51300
C200        C  0.53000175  0.62423205  0.05362121     0.70700
O201        O  0.54715816  0.62854748  0.06160108    -0.46200
C202        C  0.56867982  0.70361907  0.04893701     0.75400
O203        O  0.58597619  0.68079735  0.07275345    -0.58000
O204        O  0.58450150  0.70089947  0.04286138    -0.48100
O205        O  0.59576375  0.65578820  0.06581411    -0.54400
C206        C  0.59580039  0.65815748  0.03085023     0.85600
O207        O  0.53476614  0.64071966  0.04505461    -0.56300
O208        O  0.55476352  0.68594339  0.05629072    -0.59600
In209      In  0.09537406  0.42608658  0.05994654     1.36900
C210        C  0.07693719  0.39372571  0.08014303     0.78100
O211        O  0.05676994  0.40898945  0.05362468    -0.60400
O212        O  0.08249535  0.41528382  0.03829064    -0.51300
C213        C  0.10426965  0.47115477  0.06259325     0.70700
O214        O  0.10281223  0.45825966  0.07269620    -0.46200
C215        C  0.13841588  0.43079210  0.05540840     0.75400
O216        O  0.07359569  0.41139474  0.07921490    -0.58000
O217        O  0.12017679  0.41757165  0.04822429    -0.48100
O218        O  0.09007031  0.39287025  0.07082493    -0.54400
C219        C  0.06064538  0.40745160  0.04112782     0.85600
O220        O  0.10158209  0.46098005  0.05117770    -0.56300
O221        O  0.13460623  0.44197054  0.06479945    -0.59600
In222      In  0.09719236  0.66472802  0.06085936     1.36900
C223        C  0.06603974  0.65102970  0.03976203     0.78100
O224        O  0.11680376  0.64460076  0.05642040    -0.60400
O225        O  0.08870039  0.63008127  0.07101292    -0.51300
C226        C  0.14163115  0.70318361  0.05998569     0.70700
O227        O  0.13043956  0.69185800  0.04938322    -0.46200
C228        C  0.07597870  0.67566087  0.08089643     0.75400
O229        O  0.08252668  0.67247150  0.04154219    -0.58000
O230        O  0.08490192  0.66229111  0.08256130    -0.48100
O231        O  0.06573981  0.63681716  0.04873220    -0.54400
C232        C  0.10443444  0.62767281  0.06464861     0.85600
O233        O  0.13004899  0.69459128  0.07091295    -0.56300
O234        O  0.07762875  0.68321680  0.06878317    -0.59600
In235      In  0.91554916  0.34189506  0.94017306     1.36900
C236        C  0.94165306  0.33602145  0.92094997     0.78100
O237        O  0.94216835  0.36830402  0.95521334    -0.60400
O238        O  0.92743347  0.33138644  0.95945684    -0.51300
C239        C  0.90777931  0.37850003  0.93554029     0.70700
O240        O  0.92565877  0.37770778  0.93088141    -0.46200
C241        C  0.87298312  0.30086857  0.94069321     0.75400
O242        O  0.92539274  0.34094583  0.91816930    -0.58000
O243        O  0.88075736  0.31551753  0.95053075    -0.48100
O244        O  0.94464830  0.33438235  0.93358857    -0.54400
C245        C  0.94162963  0.35265908  0.96322025     0.85600
O246        O  0.89347101  0.36011402  0.94229849    -0.56300
O247        O  0.88708764  0.30729311  0.93059865    -0.59600
In248      In  0.91397341  0.57931054  0.94131759     1.36900
C249        C  0.94647859  0.59649797  0.96139257     0.78100
O250        O  0.90323179  0.54278713  0.94982154    -0.60400
O251        O  0.91362212  0.54930462  0.92903255    -0.51300
C252        C  0.87057413  0.57544403  0.94241898     0.70700
O253        O  0.88525348  0.58332219  0.95223294    -0.46200
C254        C  0.93503792  0.61471749  0.92293928     0.75400
O255        O  0.92445623  0.58925184  0.96329654    -0.58000
O256        O  0.93046960  0.59353729  0.92058361    -0.48100
O257        O  0.95174757  0.59458427  0.94918005    -0.54400
C258        C  0.90698230  0.53473671  0.93891381     0.85600
O259        O  0.87780128  0.56865783  0.93229635    -0.56300
O260        O  0.92883807  0.61756653  0.93472009    -0.59600
In261      In  0.44099885  0.10008247  0.94299185     1.36900
C262        C  0.40961633  0.08317568  0.92234300     0.78100
O263        O  0.42451872  0.06129864  0.94895332    -0.60400
O264        O  0.42576046  0.08547082  0.96401000    -0.51300
C265        C  0.48501177  0.10583886  0.94171376     0.70700
O266        O  0.47192898  0.10206847  0.93133148    -0.46200
C267        C  0.44925746  0.14515805  0.94539801     0.75400
O268        O  0.42959534  0.08391278  0.92197860    -0.58000
O269        O  0.43547654  0.12845311  0.95338689    -0.48100
O270        O  0.40596285  0.09135188  0.93324000    -0.54400
C271        C  0.41961995  0.06402431  0.96107449     0.85600
O272        O  0.47564059  0.10702056  0.95284809    -0.56300
O273        O  0.45895536  0.13872949  0.93641817    -0.59600
In274      In  0.67888455  0.09649697  0.93948874     1.36900
C275        C  0.66454278  0.06526952  0.96044063     0.78100
O276        O  0.65741733  0.11405976  0.94517939    -0.60400
O277        O  0.64285265  0.08662441  0.93027871    -0.51300
C278        C  0.71808377  0.14018829  0.94089752     0.70700
O279        O  0.71313688  0.12383476  0.94958487    -0.46200
C280        C  0.69364294  0.07897041  0.91934285     0.75400
O281        O  0.67856368  0.08750854  0.96189683    -0.58000
O282        O  0.67799693  0.08511636  0.91767171    -0.48100
O283        O  0.65785852  0.05910019  0.94825227    -0.54400
C284        C  0.64001775  0.10144610  0.93730792     0.85600
O285        O  0.70253904  0.13423458  0.93153748    -0.56300
O286        O  0.70185392  0.08192553  0.93135465    -0.59600
In287      In  0.57622017  0.90651171  0.05534785     1.36900
C288        C  0.59927403  0.94075663  0.03627519     0.78100
O289        O  0.54133741  0.89828423  0.04513785    -0.60400
O290        O  0.54347011  0.90166754  0.06664555    -0.51300
C291        C  0.56959292  0.86191683  0.05327635     0.70700
O292        O  0.57368465  0.87541946  0.04303132    -0.46200
C293        C  0.60611364  0.92556086  0.07673133     0.75400
O294        O  0.59960913  0.92131462  0.03645480    -0.58000
O295        O  0.58770475  0.92757759  0.07515362    -0.48100
O296        O  0.58760476  0.94276594  0.04606028    -0.54400
C297        C  0.53093092  0.89835391  0.05606518     0.85600
O298        O  0.56781012  0.87090210  0.06437168    -0.56300
O299        O  0.60962382  0.91465210  0.06708447    -0.59600
In300      In  0.33662807  0.90636113  0.05599801     1.36900
C301        C  0.32383229  0.92632234  0.07578377     0.78100
O302        O  0.36074758  0.94212652  0.04634251    -0.60400
O303        O  0.33417306  0.91488373  0.03381330    -0.51300
C304        C  0.37534084  0.90150147  0.05785648     0.70700
O305        O  0.37173269  0.91509475  0.06558725    -0.46200
C306        C  0.29708540  0.86286712  0.05599485     0.75400
O307        O  0.31972444  0.92767594  0.06329894    -0.58000
O308        O  0.31482950  0.86830228  0.06370585    -0.48100
O309        O  0.33492156  0.91513515  0.07808156    -0.54400
C310        C  0.35121086  0.93632768  0.03464632     0.85600
O311        O  0.35876246  0.88994196  0.04928146    -0.56300
O312        O  0.29997140  0.87953265  0.04800257    -0.59600
In313      In  0.41720655  0.08576322  0.55265933     1.36900
C314        C  0.39381859  0.05495157  0.53233136     0.78100
O315        O  0.44906747  0.08505497  0.54347757    -0.60400
O316        O  0.45029889  0.09248139  0.56460002    -0.51300
C317        C  0.42331087  0.12975436  0.54879342     0.70700
O318        O  0.40543158  0.11104059  0.54414075    -0.46200
C319        C  0.38873117  0.06764685  0.57464162     0.75400
O320        O  0.41054858  0.07619191  0.53029456    -0.58000
O321        O  0.40166508  0.05932556  0.57034069    -0.48100
O322        O  0.38878799  0.04966494  0.54477896    -0.54400
C323        C  0.46097524  0.08999034  0.55442506     0.85600
O324        O  0.43799951  0.12581953  0.55524167    -0.56300
O325        O  0.39137007  0.08563814  0.56802545    -0.59600
In326      In  0.66486119  0.10069039  0.55715046     1.36900
C327        C  0.67922646  0.08174816  0.57669060     0.78100
O328        O  0.64754231  0.06271815  0.54959540    -0.60400
O329        O  0.65983454  0.09028262  0.53478583    -0.51300
C330        C  0.62509598  0.10398628  0.55936298     0.70700
O331        O  0.63244865  0.09592368  0.56884724    -0.46200
C332        C  0.70390813  0.14455834  0.55585690     0.75400
O333        O  0.66100210  0.08421074  0.57797936    -0.58000
O334        O  0.70022023  0.12766435  0.54787239    -0.48100
O335        O  0.69030439  0.08946682  0.56550206    -0.54400
C336        C  0.64944778  0.06800394  0.53707439     0.85600
O337        O  0.63887079  0.11147998  0.54910302    -0.56300
O338        O  0.68702516  0.13922864  0.56425947    -0.59600
In339      In  0.56641739  0.91228263  0.44098133     1.36900
C340        C  0.59855096  0.93439825  0.42112666     0.78100
O341        O  0.56815652  0.94285718  0.45305851    -0.60400
O342        O  0.58983872  0.92849170  0.45956316    -0.51300
C343        C  0.52162429  0.90332740  0.43712101     0.70700
O344        O  0.53945981  0.91957350  0.43075613    -0.46200
C345        C  0.56302711  0.86944768  0.44382638     0.75400
O346        O  0.57646335  0.92080887  0.41868180    -0.58000
O347        O  0.56112036  0.88082315  0.45380705    -0.48100
O348        O  0.60394411  0.93617174  0.43364262    -0.54400
C349        C  0.58359532  0.94400944  0.46146991     0.85600
O350        O  0.52681736  0.89146263  0.44533398    -0.56300
O351        O  0.56662889  0.88011172  0.43249473    -0.59600
In352      In  0.32056920  0.89763843  0.43777340     1.36900
C353        C  0.33187313  0.92989657  0.45774060     0.78100
O354        O  0.35004076  0.89274641  0.44651982    -0.60400
O355        O  0.34920029  0.89593517  0.42503016    -0.51300
C356        C  0.28349271  0.85346806  0.44110343     0.70700
O357        O  0.28728341  0.87083620  0.44871949    -0.46200
C358        C  0.30459846  0.91427415  0.41773071     0.75400
O359        O  0.32268515  0.90771826  0.45992452    -0.58000
O360        O  0.32643750  0.92001912  0.41884183    -0.48100
O361        O  0.33510559  0.93557744  0.44524175    -0.54400
C362        C  0.35989877  0.89357093  0.43523179     0.85600
O363        O  0.29915622  0.85865704  0.43190239    -0.56300
O364        O  0.29119303  0.90001857  0.42686416    -0.59600
In365      In  0.42620270  0.32890788  0.55481472     1.36900
C366        C  0.39498407  0.31781458  0.57531280     0.78100
O367        O  0.41593398  0.35536921  0.54685428    -0.60400
O368        O  0.40626327  0.32423402  0.53509950    -0.51300
C369        C  0.47185861  0.36429639  0.55438964     0.70700
O370        O  0.45982052  0.35683573  0.56530530    -0.46200
C371        C  0.43092898  0.29006661  0.55275034     0.75400
O372        O  0.41533063  0.33666767  0.57526950    -0.58000
O373        O  0.42459783  0.29834206  0.54288800    -0.48100
O374        O  0.39063178  0.30497876  0.56477188    -0.54400
C375        C  0.40631193  0.34383125  0.53604086     0.85600
O376        O  0.46072151  0.35291765  0.54384397    -0.56300
O377        O  0.43539179  0.30212328  0.56362493    -0.59600
In378      In  0.66240542  0.56869867  0.55392080     1.36900
C379        C  0.64969594  0.58787842  0.53363709     0.78100
O380        O  0.64336194  0.53050197  0.54666014    -0.60400
O381        O  0.62677920  0.54027720  0.56210178    -0.51300
C382        C  0.70097881  0.56343996  0.55379271     0.70700
O383        O  0.69246281  0.56717211  0.54300612    -0.46200
C384        C  0.67420152  0.60043710  0.57418998     0.75400
O385        O  0.67009173  0.58949128  0.53414899    -0.58000
O386        O  0.66020731  0.57821289  0.57587962    -0.48100
O387        O  0.63602159  0.57657367  0.54349627    -0.54400
C388        C  0.62546946  0.52387570  0.55443729     0.85600
O389        O  0.68918535  0.56169597  0.56446945    -0.56300
O390        O  0.68192172  0.60622195  0.56211587    -0.59600
In391      In  0.33908023  0.42913205  0.43819088     1.36900
C392        C  0.32909616  0.39661596  0.41838311     0.78100
O393        O  0.36559682  0.42234074  0.44954450    -0.60400
O394        O  0.33055728  0.40773884  0.45768833    -0.51300
C395        C  0.37537473  0.47476297  0.43717104     0.70700
O396        O  0.37369557  0.45860200  0.42917179    -0.46200
C397        C  0.30029305  0.43430061  0.43903336     0.75400
O398        O  0.34228334  0.41892760  0.41651758    -0.58000
O399        O  0.30952587  0.43066577  0.44949659    -0.48100
O400        O  0.32097240  0.39110031  0.43038812    -0.54400
C401        C  0.35113072  0.41001396  0.45892162     0.85600
O402        O  0.35839165  0.46743424  0.44569511    -0.56300
O403        O  0.31092730  0.43514468  0.42800105    -0.59600
In404      In  0.57036058  0.67512728  0.44409872     1.36900
C405        C  0.59249188  0.66269230  0.46298675     0.78100
O406        O  0.53721892  0.64572042  0.45427046    -0.60400
O407        O  0.53710559  0.64845678  0.43269898    -0.51300
C408        C  0.56509399  0.71359153  0.44707840     0.70700
O409        O  0.58124390  0.71136607  0.45311460    -0.46200
C410        C  0.59886207  0.68629444  0.42203552     0.75400
O411        O  0.58204304  0.67431096  0.46597291    -0.58000
O412        O  0.58139990  0.66549847  0.42420689    -0.48100
O413        O  0.59163084  0.65782919  0.45043525    -0.54400
C414        C  0.52585441  0.63709739  0.44326869     0.85600
O415        O  0.55126866  0.69573654  0.43982367    -0.56300
O416        O  0.60160491  0.70130111  0.43117665    -0.59600
In417      In  0.09737825  0.42641555  0.44333513     1.36900
C418        C  0.06407988  0.40755571  0.46333651     0.78100
O419        O  0.10638516  0.46303491  0.45113195    -0.60400
O420        O  0.09873178  0.45553984  0.43007929    -0.51300
C421        C  0.14195352  0.43264832  0.44404226     0.70700
O422        O  0.12617632  0.42083039  0.45298494    -0.46200
C423        C  0.07747377  0.39318291  0.42388052     0.75400
O424        O  0.08622491  0.41576020  0.46554011    -0.58000
O425        O  0.07460005  0.41114321  0.42458242    -0.48100
O426        O  0.05925024  0.40890425  0.45099179    -0.54400
C427        C  0.10383496  0.47048103  0.43963141     0.85600
O428        O  0.13512998  0.44206181  0.43506351    -0.56300
O429        O  0.09053219  0.39216761  0.43320556    -0.59600
In430      In  0.08453590  0.65728703  0.43492945     1.36900
C431        C  0.05841971  0.66428827  0.41590134     0.78100
O432        O  0.07077499  0.66909035  0.45268834    -0.60400
O433        O  0.06250849  0.63286069  0.45211999    -0.51300
C434        C  0.09170139  0.62020441  0.43031809     0.70700
O435        O  0.07255748  0.61998453  0.42714678    -0.46200
C436        C  0.12634069  0.69813899  0.43743987     0.75400
O437        O  0.07766460  0.66434298  0.41313403    -0.58000
O438        O  0.11699371  0.68321955  0.44708143    -0.48100
O439        O  0.05214755  0.65954360  0.42824520    -0.54400
C440        C  0.06007134  0.64871161  0.45832691     0.85600
O441        O  0.10776746  0.64003707  0.43501857    -0.56300
O442        O  0.11441343  0.69189958  0.42646887    -0.59600
In443      In  0.90694657  0.33899265  0.55930989     1.36900
C444        C  0.94017163  0.35073891  0.53961047     0.78100
O445        O  0.89335410  0.36278125  0.55089446    -0.60400
O446        O  0.91078043  0.37181164  0.57009350    -0.51300
C447        C  0.86212169  0.30117054  0.55922162     0.70700
O448        O  0.87372200  0.31091076  0.54841423    -0.46200
C449        C  0.92819581  0.32634070  0.57838604     0.75400
O450        O  0.91973287  0.33203798  0.53912801    -0.58000
O451        O  0.92423086  0.34355240  0.57992199    -0.48100
O452        O  0.94324895  0.36344911  0.55004363    -0.54400
C453        C  0.90079788  0.37733424  0.56078087     0.85600
O454        O  0.87323506  0.31136309  0.57005235    -0.56300
O455        O  0.92072304  0.31530226  0.56717554    -0.59600
In456      In  0.90787239  0.57989607  0.55602890     1.36900
C457        C  0.92645609  0.61161745  0.57663641     0.78100
O458        O  0.94605804  0.60151896  0.54856209    -0.60400
O459        O  0.91832773  0.58697396  0.53371781    -0.51300
C460        C  0.90389996  0.53644533  0.55778552     0.70700
O461        O  0.90423546  0.54821541  0.56821863    -0.46200
C462        C  0.86324523  0.57312781  0.55349822     0.75400
O463        O  0.92720262  0.59236486  0.57629456    -0.58000
O464        O  0.88098658  0.58870141  0.54679111    -0.48100
O465        O  0.91613598  0.61445395  0.56640786    -0.54400
C466        C  0.94064756  0.59880819  0.53602125     0.85600
O467        O  0.90486722  0.54667882  0.54660528    -0.56300
O468        O  0.86834093  0.56066107  0.56128925    -0.59600
In469      In  0.00009785  0.76516451  0.67294154     1.36900
C470        C  0.00022344  0.76130388  0.70021290     0.78100
O471        O  0.04034593  0.78305667  0.67526295    -0.60400
O472        O  0.02579925  0.80138403  0.66431589    -0.51300
C473        C  0.99275848  0.73211745  0.65410861     0.70700
O474        O  0.98666651  0.72678705  0.66647505    -0.46200
C475        C  0.96111551  0.76855150  0.66793416     0.75400
O476        O  0.00523358  0.74885688  0.69231066    -0.58000
O477        O  0.98221560  0.78618298  0.66698633    -0.48100
O478        O  0.99500092  0.77532326  0.69405299    -0.54400
C479        C  0.04439482  0.80169901  0.66876461     0.85600
O480        O  0.00384150  0.75432914  0.65175686    -0.56300
O481        O  0.96011813  0.74928952  0.67165342    -0.59600
In482      In  0.01084826  0.77650205  0.83011866     1.36900
C483        C  0.01457360  0.77071407  0.80325416     0.78100
O484        O  0.97308147  0.76352815  0.82319799    -0.60400
O485        O  0.98998676  0.79454121  0.83584813    -0.51300
C486        C  0.99935029  0.74389019  0.85002412     0.70700
O487        O  0.01168950  0.74465739  0.83975895    -0.46200
C488        C  0.05335983  0.81429535  0.83649191     0.75400
O489        O  0.00624368  0.75336019  0.81160819    -0.58000
O490        O  0.03408134  0.81491997  0.83613688    -0.48100
O491        O  0.02156446  0.79082431  0.80878927    -0.54400
C492        C  0.97133526  0.77978163  0.82942413     0.85600
O493        O  0.99414753  0.76029861  0.85026605    -0.56300
O494        O  0.05068314  0.79379529  0.83409207    -0.59600
In495      In  0.23948638  0.00110014  0.67308610     1.36900
C496        C  0.24678095  0.00047451  0.70010444     0.78100
O497        O  0.25705092  0.04119969  0.67212188    -0.60400
O498        O  0.21919767  0.02113180  0.67091516    -0.51300
C499        C  0.27032486  0.00613471  0.65318450     0.70700
O500        O  0.27438584  0.00455471  0.66567918    -0.46200
C501        C  0.20195768  0.95782481  0.66802462     0.75400
O502        O  0.26352873  0.00773383  0.69143706    -0.58000
O503        O  0.20183088  0.97710276  0.66584359    -0.48100
O504        O  0.22636154  0.99326873  0.69490770    -0.54400
C505        C  0.23774908  0.04159787  0.67088159     0.85600
O506        O  0.24990858  0.00374720  0.65088930    -0.56300
O507        O  0.22181551  0.96079273  0.67237581    -0.59600
In508      In  0.25099591  0.01014697  0.82973507     1.36900
C509        C  0.25804379  0.01189916  0.80270951     0.78100
O510        O  0.23001102  0.97038284  0.82605207    -0.60400
O511        O  0.21532502  0.98547382  0.83956985    -0.51300
C512        C  0.28417113  0.01609306  0.84812990     0.70700
O513        O  0.28882632  0.02063940  0.83557115    -0.46200
C514        C  0.24872493  0.04969541  0.83411602     0.75400
O515        O  0.26646250  0.00267035  0.81084962    -0.58000
O516        O  0.23016339  0.02927419  0.83279724    -0.48100
O517        O  0.24607215  0.02009236  0.80844882    -0.54400
C518        C  0.21272934  0.96688734  0.83368492     0.85600
O519        O  0.26225408  0.00717517  0.85108452    -0.56300
O520        O  0.26827439  0.04965803  0.83309172    -0.59600
In521      In  0.24225231  0.24154486  0.67187083     1.36900
C522        C  0.24744180  0.24920647  0.69894216     0.78100
O523        O  0.22475657  0.26436390  0.67038866    -0.60400
O524        O  0.20362427  0.22705434  0.66651115    -0.51300
C525        C  0.27365080  0.26523093  0.65182932     0.70700
O526        O  0.27916827  0.26904628  0.66434954    -0.46200
C527        C  0.24112493  0.19986547  0.66953229     0.75400
O528        O  0.26087281  0.26489304  0.69032868    -0.58000
O529        O  0.22393920  0.20276758  0.66584144    -0.48100
O530        O  0.23152524  0.22997144  0.69357328    -0.54400
C531        C  0.20431809  0.24694143  0.66737082     0.85600
O532        O  0.25191729  0.24997312  0.64971057    -0.56300
O533        O  0.25893558  0.21840309  0.67439346    -0.59600
In534      In  0.24840702  0.24688256  0.82815255     1.36900
C535        C  0.25192351  0.25884835  0.80171071     0.78100
O536        O  0.25664601  0.21834111  0.82131018    -0.60400
O537        O  0.23439560  0.21113879  0.83858864    -0.51300
C538        C  0.28347098  0.27005336  0.84638556     0.70700
O539        O  0.28765593  0.26892892  0.83386233    -0.46200
C540        C  0.21130062  0.25194435  0.83535238     0.75400
O541        O  0.26869877  0.27067302  0.81013272    -0.58000
O542        O  0.20977961  0.23190815  0.83313932    -0.48100
O543        O  0.23344632  0.24143114  0.80690745    -0.54400
C544        C  0.24500977  0.20388519  0.83079964     0.85600
O545        O  0.26148780  0.26055281  0.84921606    -0.56300
O546        O  0.23214772  0.26980079  0.83360504    -0.59600
In547      In  0.00465523  0.24231828  0.67125200     1.36900
C548        C  0.00693396  0.24934143  0.69828575     0.78100
O549        O  0.96461106  0.21979579  0.67278564    -0.60400
O550        O  0.98400907  0.20316572  0.66584187    -0.51300
C551        C  0.99726322  0.26677071  0.65151470     0.70700
O552        O  0.99375238  0.26878308  0.66403886    -0.46200
C553        C  0.04861419  0.24883192  0.66745114     0.75400
O554        O  0.01089359  0.26567559  0.68973157    -0.58000
O555        O  0.02976571  0.22987409  0.66394186    -0.48100
O556        O  0.00152502  0.22942614  0.69290777    -0.54400
C557        C  0.96372840  0.20083079  0.66860382     0.85600
O558        O  0.00573973  0.25318508  0.64925048    -0.56300
O559        O  0.04492132  0.26468273  0.67260133    -0.59600
In560      In  0.01670136  0.25187812  0.82838353     1.36900
C561        C  0.02049612  0.25900622  0.80137539     0.78100
O562        O  0.05688794  0.27398174  0.82832467    -0.60400
O563        O  0.04046946  0.24056799  0.83880536    -0.51300
C564        C  0.00984398  0.27672707  0.84800581     0.70700
O565        O  0.01388203  0.28370156  0.83569206    -0.46200
C566        C  0.97638793  0.20929018  0.82787101     0.75400
O567        O  0.01454073  0.27072360  0.80928820    -0.58000
O568        O  0.99698013  0.21167360  0.82924954    -0.48100
O569        O  0.02478143  0.24423929  0.80740846    -0.54400
C570        C  0.05974527  0.25877547  0.83499769     0.85600
O571        O  0.01001982  0.25748534  0.85016620    -0.56300
O572        O  0.97640112  0.22888022  0.82710838    -0.59600
In573      In  0.76639344  0.00240106  0.66615301     1.36900
C574        C  0.75863894  0.99748128  0.69308575     0.78100
O575        O  0.74396451  0.96205985  0.66617482    -0.60400
O576        O  0.77627348  0.97824959  0.65468096    -0.51300
C577        C  0.74232386  0.01357064  0.64811556     0.70700
O578        O  0.74001063  0.01447276  0.66089913    -0.46200
C579        C  0.80922546  0.04227388  0.66527831     0.75400
O580        O  0.74345354  0.99744444  0.68483900    -0.58000
O581        O  0.80689219  0.02161477  0.66488147    -0.48100
O582        O  0.77737707  0.99988553  0.68745331    -0.54400
C583        C  0.75826963  0.95901200  0.65871576     0.85600
O584        O  0.75605084  0.00573408  0.64462594    -0.56300
O585        O  0.78973485  0.04239454  0.66622892    -0.59600
In586      In  0.77825675  0.00947925  0.82276723     1.36900
C587        C  0.76912868  0.00531346  0.79596520     0.78100
O588        O  0.80096363  0.04890953  0.81875056    -0.60400
O589        O  0.81766831  0.03125093  0.82808796    -0.51300
C590        C  0.75615406  0.01856630  0.84306704     0.70700
O591        O  0.75223577  0.02053440  0.83058873    -0.46200
C592        C  0.77182722  0.96574933  0.82711155     0.75400
O593        O  0.75335327  0.00245251  0.80468838    -0.58000
O594        O  0.79213170  0.98462267  0.82769795    -0.48100
O595        O  0.78893565  0.00973187  0.80107959    -0.54400
C596        C  0.82008139  0.05069318  0.82345715     0.85600
O597        O  0.77075362  0.01117915  0.84503247    -0.56300
O598        O  0.75462273  0.96942096  0.82469657    -0.59600
In599      In  0.76277313  0.76545326  0.66410813     1.36900
C600        C  0.74983679  0.75676145  0.69047476     0.78100
O601        O  0.79522566  0.76780011  0.67409247    -0.60400
O602        O  0.79849061  0.77946609  0.65348317    -0.51300
C603        C  0.73941608  0.72751158  0.64746386     0.70700
O604        O  0.72967904  0.73878710  0.65224263    -0.46200
C605        C  0.75825022  0.80290111  0.65608493     0.75400
O606        O  0.74632054  0.74031842  0.68216614    -0.58000
O607        O  0.77823604  0.80376871  0.65723000    -0.48100
O608        O  0.75932827  0.77733840  0.68516002    -0.54400
C609        C  0.80849173  0.77580870  0.66363274     0.85600
O610        O  0.76090797  0.73589621  0.65107641    -0.56300
O611        O  0.74043267  0.78238916  0.65838159    -0.59600
In612      In  0.76784707  0.76616706  0.81951970     1.36900
C613        C  0.75900754  0.75565786  0.79291369     0.78100
O614        O  0.75033708  0.78862490  0.81581795    -0.60400
O615        O  0.77972041  0.80184521  0.82949501    -0.51300
C616        C  0.74106458  0.73304137  0.83817512     0.70700
O617        O  0.74217241  0.72787453  0.82582799    -0.46200
C618        C  0.81152051  0.77220800  0.82359003     0.75400
O619        O  0.74255993  0.75097536  0.80151913    -0.58000
O620        O  0.80810847  0.78842060  0.81864927    -0.48100
O621        O  0.77973768  0.76507964  0.79806769    -0.54400
C622        C  0.76423788  0.80537427  0.82369521     0.85600
O623        O  0.75270756  0.75521935  0.84065199    -0.56300
O624        O  0.79248156  0.75283703  0.82623551    -0.59600
C625        C  0.74417041  0.73052227  0.72586292    -0.01500
C626        C  0.74313108  0.74788619  0.73420774     0.07100
C627        C  0.74129463  0.76660613  0.72799603    -0.07500
C628        C  0.74190212  0.76898290  0.71370170     0.04500
C629        C  0.74480694  0.75262564  0.70536363    -0.14700
C630        C  0.74501563  0.73299959  0.71157307    -0.08100
C631        C  0.74604211  0.74799226  0.74933757     0.05400
C632        C  0.76774102  0.75105536  0.75460713    -0.09200
C633        C  0.77208319  0.75273395  0.76873569     0.00400
C634        C  0.75447008  0.75151728  0.77795565     0.00300
C635        C  0.73244385  0.74769476  0.77265398    -0.12700
C636        C  0.72817823  0.74605968  0.75849643     0.00800
C637        C  0.79473368  0.75556415  0.77337907     0.40100
C638        C  0.70535263  0.74238970  0.75361458     0.36700
C639        C  0.74457098  0.71013538  0.73179013     0.36400
C640        C  0.73932846  0.78823285  0.70785736     0.37200
N641        N  0.81288281  0.75777457  0.77705176    -0.43600
N642        N  0.68705044  0.73948261  0.74972650    -0.44100
N643        N  0.73709596  0.80350118  0.70309227    -0.41400
N644        N  0.74479656  0.69379992  0.73661976    -0.42900
H645        H  0.74682818  0.72007522  0.70529877     0.13300
H646        H  0.74012134  0.77982277  0.73434752     0.09800
H647        H  0.78154279  0.75253629  0.74760184     0.10900
H648        H  0.71869909  0.74661140  0.77956058     0.16700
C649        C  0.78818658  0.91688652  0.82775927    -0.01500
C650        C  0.76551194  0.89578572  0.82827412     0.07100
C651        C  0.74473140  0.89768032  0.82938582    -0.07500
C652        C  0.74622910  0.92021934  0.82959209     0.04500
C653        C  0.76894280  0.94141841  0.82847099    -0.14700
C654        C  0.78971225  0.93935380  0.82784803    -0.08100
C655        C  0.76328461  0.87167677  0.82748038     0.05400
C656        C  0.77268472  0.86417869  0.83812467    -0.09200
C657        C  0.77267533  0.84242551  0.83729022     0.00400
C658        C  0.76295858  0.82760965  0.82561209     0.00300
C659        C  0.75272147  0.83475807  0.81519363    -0.12700
C660        C  0.75297507  0.85665662  0.81599380     0.00800
C661        C  0.78249695  0.83571239  0.84865640     0.40100
C662        C  0.74368446  0.86391811  0.80460351     0.36700
C663        C  0.81014445  0.91596401  0.82664342     0.36400
C664        C  0.72422122  0.92091228  0.83119436     0.37200
N665        N  0.79034655  0.83035304  0.85778849    -0.43600
N666        N  0.73633279  0.86981346  0.79546516    -0.44100
N667        N  0.70653138  0.92134317  0.83258010    -0.41400
N668        N  0.82777822  0.91528909  0.82578270    -0.42900
H669        H  0.80728809  0.95536110  0.82705168     0.13300
H670        H  0.72729001  0.88146768  0.83005910     0.09800
H671        H  0.78039269  0.87558874  0.84703714     0.10900
H672        H  0.74527578  0.82364110  0.80615787     0.16700
C673        C  0.74073013  0.89394942  0.66374997    -0.01500
C674        C  0.75234923  0.88982902  0.65268391     0.07100
C675        C  0.76428531  0.90800371  0.64287208    -0.07500
C676        C  0.76576415  0.93042750  0.64430638     0.04500
C677        C  0.75486453  0.93486278  0.65567371    -0.14700
C678        C  0.74183401  0.91618597  0.66506273    -0.08100
C679        C  0.75409123  0.86759395  0.65192025     0.05400
C680        C  0.73321051  0.84516091  0.65018035    -0.09200
C681        C  0.73410615  0.82377166  0.65080004     0.00400
C682        C  0.75630581  0.82465865  0.65325759     0.00300
C683        C  0.77727766  0.84725369  0.65428566    -0.12700
C684        C  0.77633383  0.86851860  0.65372760     0.00800
C685        C  0.71195926  0.80132126  0.64895424     0.40100
C686        C  0.79827093  0.89103472  0.65592032     0.36700
C687        C  0.72901813  0.87627856  0.67442522     0.36400
C688        C  0.77863970  0.94850320  0.63398937     0.37200
N689        N  0.69416161  0.78338512  0.64741800    -0.43600
N690        N  0.81581431  0.90908883  0.65772240    -0.44100
N691        N  0.78896435  0.96296284  0.62570552    -0.41400
N692        N  0.71974404  0.86220569  0.68303617    -0.42900
H693        H  0.73350998  0.91934791  0.67387745     0.13300
H694        H  0.77310331  0.90488099  0.63429263     0.09800
H695        H  0.71609631  0.84436506  0.64861883     0.10900
H696        H  0.79447530  0.84838070  0.65616366     0.16700
C697        C  0.76862782  0.98649428  0.72980201    -0.01500
C698        C  0.75480280  0.99424121  0.73716252     0.07100
C699        C  0.74038683  0.00123781  0.72988875    -0.07500
C700        C  0.74047473  0.00156415  0.71547799     0.04500
C701        C  0.75533980  0.99498926  0.70816282    -0.14700
C702        C  0.76887328  0.98699117  0.71548163    -0.08100
C703        C  0.75736357  0.99759534  0.75229882     0.05400
C704        C  0.78035480  0.01298581  0.75759784    -0.09200
C705        C  0.78441339  0.01604321  0.77169293     0.00400
C706        C  0.76507123  0.00367139  0.78093994     0.00300
C707        C  0.74178228  0.98911393  0.77565268    -0.12700
C708        C  0.73779018  0.98595240  0.76144789     0.00800
C709        C  0.80858213  0.03250184  0.77630455     0.40100
C710        C  0.71368067  0.97021050  0.75652811     0.36700
C711        C  0.78319442  0.97835003  0.73668626     0.36400
C712        C  0.72628720  0.01013976  0.70859497     0.37200
N713        N  0.82794956  0.04572993  0.77997060    -0.43600
N714        N  0.69433746  0.95768373  0.75256937    -0.44100
N715        N  0.71490468  0.01707858  0.70315469    -0.41400
N716        N  0.79500454  0.97194599  0.74214428    -0.42900
H717        H  0.77999449  0.98152281  0.71004334     0.13300
H718        H  0.72993014  0.00741343  0.73543861     0.09800
H719        H  0.79536693  0.02262516  0.75060725     0.10900
H720        H  0.72673940  0.97965680  0.78263953     0.16700
C721        C  0.91031619  0.16225218  0.82951564    -0.01500
C722        C  0.91044744  0.14103918  0.82593405     0.07100
C723        C  0.93245872  0.14236997  0.82291134    -0.07500
C724        C  0.95414038  0.16429185  0.82353219     0.04500
C725        C  0.95402224  0.18555697  0.82715443    -0.14700
C726        C  0.93193378  0.18420725  0.83002078    -0.08100
C727        C  0.88775370  0.11744499  0.82506551     0.05400
C728        C  0.86973720  0.11488823  0.81593733    -0.09200
C729        C  0.84768310  0.09341308  0.81518580     0.00400
C730        C  0.84339058  0.07367983  0.82358946     0.00300
C731        C  0.86176422  0.07604247  0.83242473    -0.12700
C732        C  0.88371846  0.09768214  0.83327991     0.00800
C733        C  0.83002449  0.09220667  0.80555340     0.40100
C734        C  0.90146826  0.09945325  0.84302635     0.36700
C735        C  0.88827612  0.16185308  0.83306074     0.36400
C736        C  0.97606406  0.16445922  0.81996915     0.37200
N737        N  0.81589270  0.09131139  0.79784321    -0.43600
N738        N  0.91572359  0.10091786  0.85082931    -0.44100
N739        N  0.99365549  0.16464837  0.81710263    -0.41400
N740        N  0.87058018  0.16147723  0.83588288    -0.42900
H741        H  0.93154457  0.20032308  0.83285066     0.13300
H742        H  0.93266232  0.12621900  0.81993243     0.09800
H743        H  0.87289453  0.12986821  0.80941408     0.10900
H744        H  0.85879579  0.06112075  0.83893330     0.16700
C745        C  0.92043504  0.13654562  0.65831804    -0.01500
C746        C  0.89850263  0.13271653  0.66383532     0.07100
C747        C  0.89793400  0.15147418  0.67081825    -0.07500
C748        C  0.91878229  0.17380136  0.67247499     0.04500
C749        C  0.94090123  0.17770785  0.66700934    -0.14700
C750        C  0.94132870  0.15889606  0.65990480    -0.08100
C751        C  0.87609095  0.10903467  0.66310467     0.05400
C752        C  0.87534088  0.08913934  0.66955326    -0.09200
C753        C  0.85393825  0.06697788  0.67011985     0.00400
C754        C  0.83265968  0.06471404  0.66443512     0.00300
C755        C  0.83354601  0.08454771  0.65783039    -0.12700
C756        C  0.85506510  0.10645591  0.65692792     0.00800
C757        C  0.85416755  0.04728037  0.67709835     0.40100
C758        C  0.85529027  0.12581482  0.64928288     0.36700
C759        C  0.92192688  0.11788923  0.65092429     0.36400
C760        C  0.91685812  0.19186428  0.68026228     0.37200
N761        N  0.85451499  0.03156773  0.68268625    -0.43600
N762        N  0.85546375  0.14121902  0.64304250    -0.44100
N763        N  0.91511730  0.20616247  0.68656812    -0.41400
N764        N  0.92318122  0.10292522  0.64504664    -0.42900
H765        H  0.95806539  0.16159418  0.65557861     0.13300
H766        H  0.88114839  0.14845294  0.67526023     0.09800
H767        H  0.89142394  0.09109173  0.67441432     0.10900
H768        H  0.81739689  0.08283039  0.65318260     0.16700
C769        C  0.00561376  0.27026563  0.76556339    -0.01500
C770        C  0.01665990  0.26046886  0.75735618     0.07100
C771        C  0.03091086  0.25229959  0.76362144    -0.07500
C772        C  0.03334918  0.25267078  0.77788787     0.04500
C773        C  0.02128913  0.26137248  0.78621751    -0.14700
C774        C  0.00808795  0.27075089  0.77986124    -0.08100
C775        C  0.01293745  0.25764609  0.74227878     0.05400
C776        C  0.02231532  0.27808092  0.73388324    -0.09200
C777        C  0.02018637  0.27594900  0.71956802     0.00400
C778        C  0.00862830  0.25291708  0.71339999     0.00300
C779        C  0.99886094  0.23251611  0.72191067    -0.12700
C780        C  0.00077866  0.23469869  0.73619030     0.00800
C781        C  0.03061247  0.29772769  0.71153869     0.40100
C782        C  0.98971606  0.21312578  0.74442958     0.36700
C783        C  0.99056702  0.27866491  0.75960742     0.36400
C784        C  0.04837176  0.24401019  0.78361726     0.37200
N785        N  0.03894292  0.31520698  0.70511483    -0.43600
N786        N  0.98078574  0.19588884  0.75106612    -0.44100
N787        N  0.06043771  0.23708638  0.78817657    -0.41400
N788        N  0.97844437  0.28534467  0.75484719    -0.42900
H789        H  0.99877865  0.27751644  0.78609014     0.13300
H790        H  0.03981747  0.24518052  0.75731776     0.09800
H791        H  0.03167056  0.29576052  0.73853536     0.10900
H792        H  0.98961643  0.21471264  0.71741148     0.16700
C793        C  0.10774054  0.24919174  0.85123541    -0.01500
C794        C  0.12724346  0.26158438  0.84211323     0.07100
C795        C  0.12481296  0.27432919  0.83112048    -0.07500
C796        C  0.10347055  0.27470377  0.82900215     0.04500
C797        C  0.08360125  0.26140868  0.83775756    -0.14700
C798        C  0.08610121  0.24896058  0.84889080    -0.08100
C799        C  0.14941647  0.25969860  0.84289201     0.05400
C800        C  0.14708453  0.23681308  0.84293046    -0.09200
C801        C  0.16715300  0.23393372  0.84147626     0.00400
C802        C  0.19017553  0.25426426  0.83925474     0.00300
C803        C  0.19272263  0.27726444  0.84011436    -0.12700
C804        C  0.17265274  0.28011004  0.84206936     0.00800
C805        C  0.16330136  0.20981119  0.84218815     0.40100
C806        C  0.17624858  0.30411608  0.84301553     0.36700
C807        C  0.10945729  0.23665401  0.86308443     0.36400
C808        C  0.10224679  0.28795828  0.81736577     0.37200
N809        N  0.16016387  0.19047407  0.84288004    -0.43600
N810        N  0.17891827  0.32326908  0.84375695    -0.44100
N811        N  0.10139510  0.29870286  0.80806945    -0.41400
N812        N  0.11076851  0.22655887  0.87257529    -0.42900
H813        H  0.07104457  0.23890296  0.85576388     0.13300
H814        H  0.13944853  0.28345951  0.82386266     0.09800
H815        H  0.12935799  0.22098162  0.84359226     0.10900
H816        H  0.21032276  0.29309214  0.83890369     0.16700
C817        C  0.13867318  0.22907463  0.66609010    -0.01500
C818        C  0.13960948  0.25117536  0.66366280     0.07100
C819        C  0.16209389  0.27205580  0.66206211    -0.07500
C820        C  0.18348132  0.27118149  0.66288551     0.04500
C821        C  0.18251732  0.24906124  0.66548327    -0.14700
C822        C  0.15994994  0.22817287  0.66683656    -0.08100
C823        C  0.11733025  0.25286400  0.66346318     0.05400
C824        C  0.11396268  0.26626741  0.67366780    -0.09200
C825        C  0.09209235  0.26607530  0.67483386     0.00400
C826        C  0.07292728  0.25184059  0.66580171     0.00300
C827        C  0.07676218  0.23934328  0.65521818    -0.12700
C828        C  0.09886920  0.24016531  0.65381616     0.00800
C829        C  0.08953259  0.27975189  0.68577435     0.40100
C830        C  0.10234110  0.22810825  0.64231240     0.36700
C831        C  0.11615876  0.20721258  0.66849793     0.36400
C832        C  0.20602174  0.29310126  0.66071794     0.37200
N833        N  0.08754374  0.29080282  0.69451123    -0.43600
N834        N  0.10520170  0.21856693  0.63305837    -0.44100
N835        N  0.22409952  0.31063517  0.65891332    -0.41400
N836        N  0.09813389  0.18968085  0.67041205    -0.42900
H837        H  0.15887926  0.21108807  0.66892139     0.13300
H838        H  0.16290914  0.28907941  0.66017046     0.09800
H839        H  0.12821247  0.27631085  0.68100913     0.10900
H840        H  0.06243655  0.22891534  0.64798589     0.16700
C841        C  0.26914294  0.28057104  0.73335588    -0.01500
C842        C  0.25469663  0.26216192  0.74269579     0.07100
C843        C  0.23814676  0.23938181  0.73760616    -0.07500
C844        C  0.23567754  0.23464123  0.72352553     0.04500
C845        C  0.24995987  0.25308947  0.71406240    -0.14700
C846        C  0.26674467  0.27589881  0.71920484    -0.08100
C847        C  0.25595443  0.26577850  0.75783165     0.05400
C848        C  0.23508547  0.26176472  0.76476292    -0.09200
C849        C  0.23387427  0.26077319  0.77910025     0.00400
C850        C  0.25388612  0.26400398  0.78681340     0.00300
C851        C  0.27530577  0.26961977  0.77994422    -0.12700
C852        C  0.27638804  0.27020232  0.76556020     0.00800
C853        C  0.21182350  0.25621988  0.78567574     0.40100
C854        C  0.29798383  0.27350408  0.75898680     0.36700
C855        C  0.28601771  0.30453112  0.73799492     0.36400
C856        C  0.21837107  0.21055334  0.71924796     0.37200
N857        N  0.19422348  0.25262424  0.79100949    -0.43600
N858        N  0.31526498  0.27614222  0.75368000    -0.44100
N859        N  0.20448685  0.19120670  0.71589987    -0.41400
N860        N  0.29962740  0.32374183  0.74168182    -0.42900
H861        H  0.27783159  0.29027899  0.71215270     0.13300
H862        H  0.22708976  0.22511094  0.74474045     0.09800
H863        H  0.21936603  0.25851167  0.75891080     0.10900
H864        H  0.29072863  0.27199636  0.78578175     0.16700
C865        C  0.22479738  0.09267510  0.83331431    -0.01500
C866        C  0.24526345  0.11454919  0.83689488     0.07100
C867        C  0.26646238  0.11486965  0.84069841    -0.07500
C868        C  0.26780313  0.09379107  0.84041833     0.04500
C869        C  0.24760282  0.07194054  0.83614495    -0.14700
C870        C  0.22605618  0.07158759  0.83301516    -0.08100
C871        C  0.24546468  0.13752782  0.83547464     0.05400
C872        C  0.23674667  0.14556614  0.84616222    -0.09200
C873        C  0.23609365  0.16695191  0.84487866     0.00400
C874        C  0.24437742  0.18066815  0.83265790     0.00300
C875        C  0.25306579  0.17238215  0.82199622    -0.12700
C876        C  0.25357879  0.15099233  0.82330244     0.00800
C877        C  0.22722242  0.17441662  0.85636459     0.40100
C878        C  0.26219661  0.14294419  0.81196090     0.36700
C879        C  0.20267548  0.09171946  0.82932148     0.36400
C880        C  0.29010749  0.09520869  0.84453115     0.37200
N881        N  0.22008729  0.18031184  0.86559811    -0.43600
N882        N  0.26902053  0.13635247  0.80290377    -0.44100
N883        N  0.30793489  0.09626964  0.84784177    -0.41400
N884        N  0.18500102  0.09106001  0.82610455    -0.42900
H885        H  0.21037632  0.05497727  0.82981129     0.13300
H886        H  0.28216078  0.13174966  0.84354723     0.09800
H887        H  0.23041150  0.13506577  0.85550391     0.10900
H888        H  0.25940719  0.18257488  0.81255542     0.16700
C889        C  0.25384955  0.15002807  0.67780404    -0.01500
C890        C  0.23994727  0.13247950  0.66794070     0.07100
C891        C  0.22597297  0.13696498  0.65864576    -0.07500
C892        C  0.22596862  0.15875230  0.65893852     0.04500
C893        C  0.24041041  0.17658030  0.66860207    -0.14700
C894        C  0.25429122  0.17196660  0.67790121    -0.08100
C895        C  0.23917382  0.10904974  0.66753043     0.05400
C896        C  0.21726537  0.08799303  0.67003855    -0.09200
C897        C  0.21611827  0.06570021  0.67096973     0.00400
C898        C  0.23732659  0.06432559  0.66940367     0.00300
C899        C  0.25905138  0.08538813  0.66639419    -0.12700
C900        C  0.26008590  0.10755211  0.66530744     0.00800
C901        C  0.19310204  0.04485011  0.67398473     0.40100
C902        C  0.28280005  0.12849916  0.66186940     0.36700
C903        C  0.26707223  0.14556368  0.68826436     0.36400
C904        C  0.21137545  0.16244290  0.64904925     0.37200
N905        N  0.17459360  0.02821532  0.67640114    -0.43600
N906        N  0.30101496  0.14531580  0.65919402    -0.44100
N907        N  0.19963534  0.16537195  0.64114329    -0.41400
N908        N  0.27764842  0.14186945  0.69659907    -0.42900
H909        H  0.26505258  0.18531142  0.68554153     0.13300
H910        H  0.21508770  0.12341110  0.65113571     0.09800
H911        H  0.20112149  0.08909424  0.67165461     0.10900
H912        H  0.27538052  0.08459442  0.66486854     0.16700
C913        C  0.27750660  0.02093423  0.73458675    -0.01500
C914        C  0.25913242  0.00577550  0.74371209     0.07100
C915        C  0.23697569  0.98801952  0.73846819    -0.07500
C916        C  0.23265559  0.98562020  0.72432298     0.04500
C917        C  0.25088759  0.00112838  0.71511311    -0.14700
C918        C  0.27336041  0.01837811  0.72041266    -0.08100
C919        C  0.26196349  0.00886406  0.75878934     0.05400
C920        C  0.26011801  0.02759070  0.76490749    -0.09200
C921        C  0.25983500  0.02955054  0.77919554     0.00400
C922        C  0.26116290  0.01232421  0.78762987     0.00300
C923        C  0.26437291  0.99437891  0.78144972    -0.12700
C924        C  0.26477128  0.99254632  0.76714530     0.00800
C925        C  0.25862872  0.04966451  0.78487862     0.40100
C926        C  0.26805719  0.97381240  0.76123306     0.36700
C927        C  0.30065617  0.03928619  0.73956467     0.36400
C928        C  0.20946712  0.96688033  0.71960706     0.37200
N929        N  0.25784066  0.06590032  0.78939647    -0.43600
N930        N  0.27087002  0.95890794  0.75648375    -0.44100
N931        N  0.19085842  0.95180740  0.71589488    -0.41400
N932        N  0.31921547  0.05399128  0.74356436    -0.42900
H933        H  0.28752154  0.03038005  0.71348787     0.13300
H934        H  0.22284407  0.97628695  0.74549307     0.09800
H935        H  0.25837946  0.04041781  0.75847918     0.10900
H936        H  0.26581421  0.98128413  0.78778589     0.16700
C937        C  0.91338823  0.77424827  0.81661225    -0.01500
C938        C  0.90588916  0.78245743  0.82792968     0.07100
C939        C  0.92010902  0.79008612  0.83978678    -0.07500
C940        C  0.94172841  0.78971818  0.84045915     0.04500
C941        C  0.94913136  0.78125988  0.82915249    -0.14700
C942        C  0.93476320  0.77353066  0.81734156    -0.08100
C943        C  0.88243960  0.78162007  0.82781187     0.05400
C944        C  0.86327624  0.76331884  0.83513968    -0.09200
C945        C  0.84008332  0.76007972  0.83415641     0.00400
C946        C  0.83588143  0.77558588  0.82574833     0.00300
C947        C  0.85542158  0.79455833  0.81889821    -0.12700
C948        C  0.87853236  0.79758878  0.81980534     0.00800
C949        C  0.82111694  0.74069657  0.84189159     0.40100
C950        C  0.89786024  0.81690281  0.81223695     0.36700
C951        C  0.89917913  0.76607761  0.80424565     0.36400
C952        C  0.95532104  0.79699397  0.85306877     0.37200
N953        N  0.80601000  0.72511396  0.84811019    -0.43600
N954        N  0.91328370  0.83235258  0.80611622    -0.44100
N955        N  0.96622847  0.80275426  0.86316853    -0.41400
N956        N  0.88778780  0.75967183  0.79433307    -0.42900
H957        H  0.94031330  0.76701533  0.80861795     0.13300
H958        H  0.91415648  0.79608905  0.84856178     0.09800
H959        H  0.86635411  0.75109662  0.84134678     0.10900
H960        H  0.85255555  0.80669781  0.81248975     0.16700
C961        C  0.12102664  0.85410121  0.83827530    -0.01500
C962        C  0.12372407  0.87707436  0.83999162     0.07100
C963        C  0.10321235  0.87925405  0.84164248    -0.07500
C964        C  0.08012343  0.85906564  0.84106409     0.04500
C965        C  0.07727518  0.83597985  0.83881926    -0.14700
C966        C  0.09797880  0.83383005  0.83777495    -0.08100
C967        C  0.14757283  0.89924445  0.83897745     0.05400
C968        C  0.15988372  0.90470989  0.82643679    -0.09200
C969        C  0.18150798  0.92630314  0.82461627     0.00400
C970        C  0.19094882  0.94309550  0.83544566     0.00300
C971        C  0.17880761  0.93742944  0.84806943    -0.12700
C972        C  0.15742031  0.91557698  0.84995180     0.00800
C973        C  0.19290458  0.93124908  0.81132095     0.40100
C974        C  0.14614092  0.91002091  0.86327885     0.36700
C975        C  0.14169285  0.85099120  0.83684940     0.36400
C976        C  0.05989062  0.86292847  0.84237583     0.37200
N977        N  0.20204512  0.93522064  0.80067103    -0.43600
N978        N  0.13716389  0.90543109  0.87397912    -0.44100
N979        N  0.04376342  0.86616374  0.84339281    -0.41400
N980        N  0.15833122  0.84862494  0.83568382    -0.42900
H981        H  0.09621776  0.81633147  0.83615006     0.13300
H982        H  0.10525653  0.89694574  0.84291367     0.09800
H983        H  0.15224760  0.89226813  0.81793624     0.10900
H984        H  0.18611368  0.95005572  0.85650445     0.16700
C985        C  0.86398698  0.77463565  0.67543818    -0.01500
C986        C  0.87748790  0.77966467  0.66328454     0.07100
C987        C  0.86941732  0.78568354  0.65139301    -0.07500
C988        C  0.84750162  0.78560860  0.65130937     0.04500
C989        C  0.83323820  0.77931549  0.66334699    -0.14700
C990        C  0.84213793  0.77448892  0.67538995    -0.08100
C991        C  0.89914491  0.77703933  0.66275388     0.05400
C992        C  0.89607882  0.75393293  0.66389430    -0.09200
C993        C  0.91589663  0.75052631  0.66509452     0.00400
C994        C  0.93946942  0.77066821  0.66525793     0.00300
C995        C  0.94244533  0.79370452  0.66334494    -0.12700
C996        C  0.92255305  0.79701704  0.66211654     0.00800
C997        C  0.91127146  0.72617017  0.66623004     0.40100
C998        C  0.92661677  0.82114305  0.66090401     0.36700
C999        C  0.87216709  0.76932419  0.68806176     0.36400
C1000       C  0.83993566  0.79136119  0.63862500     0.37200
N1001       N  0.90737485  0.70658329  0.66709968    -0.43600
N1002       N  0.93004498  0.84055368  0.65995435    -0.44100
N1003       N  0.83394614  0.79600015  0.62843423    -0.41400
N1004       N  0.87885713  0.76511977  0.69813655    -0.42900
H1005       H  0.83173120  0.76996828  0.68477879     0.13300
H1006       H  0.87991645  0.78972819  0.64205660     0.09800
H1007       H  0.87802359  0.73851042  0.66418289     0.10900
H1008       H  0.96036064  0.80932784  0.66325715     0.16700
C1009       C  0.10833991  0.84928931  0.67690073    -0.01500
C1010       C  0.11412691  0.86527340  0.66573610     0.07100
C1011       C  0.09756295  0.85907364  0.65495972    -0.07500
C1012       C  0.07502196  0.83811873  0.65552458     0.04500
C1013       C  0.06884698  0.82264113  0.66696072    -0.14700
C1014       C  0.08594730  0.82809893  0.67735192    -0.08100
C1015       C  0.13673527  0.88902956  0.66542708     0.05400
C1016       C  0.15910739  0.89006498  0.66584826    -0.09200
C1017       C  0.18066486  0.91218388  0.66623127     0.00400
C1018       C  0.18005895  0.93388300  0.66625070     0.00300
C1019       C  0.15765828  0.93275545  0.66527890    -0.12700
C1020       C  0.13617234  0.91069762  0.66489236     0.00800
C1021       C  0.20306626  0.91201539  0.66633988     0.40100
C1022       C  0.11373648  0.91083320  0.66448053     0.36700
C1023       C  0.12445925  0.85481045  0.68838488     0.36400
C1024       C  0.05871084  0.83283953  0.64416212     0.37200
N1025       N  0.22106052  0.91194153  0.66634594    -0.43600
N1026       N  0.09576026  0.91092559  0.66409108    -0.44100
N1027       N  0.04566173  0.82859696  0.63504238    -0.41400
N1028       N  0.13730660  0.85915118  0.69761700    -0.42900
H1029       H  0.08139516  0.81633400  0.68617623     0.13300
H1030       H  0.10208826  0.87096641  0.64619761     0.09800
H1031       H  0.15970650  0.87349867  0.66593027     0.10900
H1032       H  0.15680475  0.94918527  0.66523180     0.16700
C1033       C  0.01543584  0.74874860  0.73577717    -0.01500
C1034       C  0.00647955  0.76022834  0.74425699     0.07100
C1035       C  0.99444408  0.77109844  0.73829822    -0.07500
C1036       C  0.99155261  0.77106009  0.72406879     0.04500
C1037       C  0.00109270  0.76013081  0.71543449    -0.14700
C1038       C  0.01264605  0.74871709  0.72150547    -0.08100
C1039       C  0.01003314  0.76189878  0.75934820     0.05400
C1040       C  0.02665558  0.78408638  0.76506744    -0.09200
C1041       C  0.02922828  0.78715207  0.77930411     0.00400
C1042       C  0.01484218  0.76767760  0.78815252     0.00300
C1043       C  0.99884342  0.74521146  0.78234499    -0.12700
C1044       C  0.99621713  0.74226005  0.76808379     0.00800
C1045       C  0.04679531  0.81050035  0.78446629     0.40100
C1046       C  0.97836603  0.71929762  0.76264280     0.36700
C1047       C  0.02822049  0.73760446  0.74148261     0.36400
C1048       C  0.97853185  0.78223534  0.71871646     0.37200
N1049       N  0.06091007  0.82923554  0.78855313    -0.43600
N1050       N  0.96399049  0.70093591  0.75825820    -0.44100
N1051       N  0.96806716  0.79115372  0.71442252    -0.41400
N1052       N  0.03848490  0.72870033  0.74607881    -0.42900
H1053       H  0.02007147  0.74025381  0.71508613     0.13300
H1054       H  0.98735811  0.77976345  0.74482724     0.09800
H1055       H  0.03740041  0.79918966  0.75835224     0.10900
H1056       H  0.98757250  0.73013873  0.78895377     0.16700
C1057       C  0.95985532  0.64118456  0.60952623    -0.01500
C1058       C  0.95733620  0.66170743  0.61036977     0.07100
C1059       C  0.94520022  0.66620403  0.59985128    -0.07500
C1060       C  0.93518919  0.65041229  0.58873897     0.04500
C1061       C  0.93697008  0.62930893  0.58807643    -0.14700
C1062       C  0.94946889  0.62510095  0.59857636    -0.08100
C1063       C  0.96761804  0.67906833  0.62193569     0.05400
C1064       C  0.98555040  0.70278392  0.61915207    -0.09200
C1065       C  0.99493412  0.72009081  0.62956347     0.00400
C1066       C  0.98601117  0.71385567  0.64311368     0.00300
C1067       C  0.96854532  0.68991016  0.64594020    -0.12700
C1068       C  0.95932608  0.67259213  0.63552920     0.00800
C1069       C  0.01378089  0.74400959  0.62600358     0.40100
C1070       C  0.94077382  0.64851422  0.63899805     0.36700
C1071       C  0.97385915  0.63680578  0.61949029     0.36400
C1072       C  0.92344944  0.65661956  0.57819211     0.37200
N1073       N  0.02895779  0.76317683  0.62322247    -0.43600
N1074       N  0.92604895  0.62919052  0.64185138    -0.44100
N1075       N  0.91417932  0.66175815  0.56973573    -0.41400
N1076       N  0.98519097  0.63346604  0.62748468    -0.42900
H1077       H  0.95148497  0.60933987  0.59815827     0.13300
H1078       H  0.94353515  0.68216777  0.60034275     0.09800
H1079       H  0.99219743  0.70780413  0.60875652     0.10900
H1080       H  0.96144537  0.68480844  0.65624061     0.16700
C1081       C  0.94806952  0.28852892  0.59813124    -0.01500
C1082       C  0.96227632  0.30426638  0.60869985     0.07100
C1083       C  0.96613379  0.32777855  0.60886752    -0.07500
C1084       C  0.95541938  0.33545409  0.59909595     0.04500
C1085       C  0.94047313  0.31942408  0.58881898    -0.14700
C1086       C  0.93733982  0.29618052  0.58836361    -0.08100
C1087       C  0.97274955  0.29637611  0.61981776     0.05400
C1088       C  0.98799876  0.28736230  0.61642048    -0.09200
C1089       C  0.99679193  0.27820584  0.62651911     0.00400
C1090       C  0.99063860  0.27833278  0.64045100     0.00300
C1091       C  0.97625700  0.28836608  0.64386058    -0.12700
C1092       C  0.96725182  0.29721793  0.63374687     0.00800
C1093       C  0.01189636  0.26870458  0.62217518     0.40100
C1094       C  0.95163483  0.30621084  0.63793136     0.36700
C1095       C  0.94379615  0.26427662  0.59720249     0.36400
C1096       C  0.96075334  0.36008469  0.59963771     0.37200
N1097       N  0.02396021  0.26109084  0.61860742    -0.43600
N1098       N  0.93923182  0.31353131  0.64131500    -0.44100
N1099       N  0.96511657  0.37985849  0.60001751    -0.41400
N1100       N  0.94054724  0.24491741  0.59635732    -0.42900
H1101       H  0.92614985  0.28375446  0.58045579     0.13300
H1102       H  0.97757921  0.34020559  0.61670644     0.09800
H1103       H  0.99276779  0.28715516  0.60577970     0.10900
H1104       H  0.97130654  0.28860373  0.65446111     0.16700
C1105       C  0.91445477  0.44014486  0.57042564    -0.01500
C1106       C  0.89924940  0.44388995  0.56157917     0.07100
C1107       C  0.88382942  0.42530577  0.55275127    -0.07500
C1108       C  0.88349894  0.40330160  0.55252350     0.04500
C1109       C  0.89897604  0.39957408  0.56125409    -0.14700
C1110       C  0.91407392  0.41812295  0.57027548    -0.08100
C1111       C  0.90005421  0.46744682  0.56081046     0.05400
C1112       C  0.90936602  0.48146163  0.54896331    -0.09200
C1113       C  0.91071277  0.50383974  0.54773120     0.00400
C1114       C  0.90264555  0.51270253  0.55857269     0.00300
C1115       C  0.89326587  0.49857298  0.57043139    -0.12700
C1116       C  0.89168883  0.47603915  0.57155856     0.00800
C1117       C  0.92110773  0.51751926  0.53536167     0.40100
C1118       C  0.88071561  0.46170662  0.58363370     0.36700
C1119       C  0.93138938  0.45901803  0.57929356     0.36400
C1120       C  0.86690843  0.38490083  0.54330620     0.37200
N1121       N  0.92943491  0.52846219  0.52544602    -0.43600
N1122       N  0.87179376  0.45017671  0.59328636    -0.44100
N1123       N  0.85354787  0.37018757  0.53591782    -0.41400
N1124       N  0.94501716  0.47415310  0.58637725    -0.42900
H1125       H  0.92621602  0.41573220  0.57696221     0.13300
H1126       H  0.87209342  0.42809558  0.54593176     0.09800
H1127       H  0.91582429  0.47493973  0.54067001     0.10900
H1128       H  0.88676193  0.50495420  0.57876468     0.16700
C1129       C  0.02230349  0.61489813  0.48909316    -0.01500
C1130       C  0.01244527  0.62925990  0.49305326     0.07100
C1131       C  0.02021672  0.65132150  0.48646813    -0.07500
C1132       C  0.03663132  0.65864788  0.47558210     0.04500
C1133       C  0.04511003  0.64337620  0.47086646    -0.14700
C1134       C  0.03812827  0.62179032  0.47793654    -0.08100
C1135       C  0.99378774  0.62151682  0.50391199     0.05400
C1136       C  0.99941777  0.63440581  0.51622951    -0.09200
C1137       C  0.98232255  0.62766111  0.52672918     0.00400
C1138       C  0.95893680  0.60773660  0.52492583     0.00300
C1139       C  0.95315463  0.59529364  0.51240001    -0.12700
C1140       C  0.97033734  0.60193401  0.50196233     0.00800
C1141       C  0.98912423  0.64192776  0.53906993     0.40100
C1142       C  0.96345077  0.58855143  0.48928720     0.36700
C1143       C  0.01693717  0.59339210  0.49657347     0.36400
C1144       C  0.04400662  0.68169807  0.46936131     0.37200
N1145       N  0.99460814  0.65344777  0.54893373    -0.43600
N1146       N  0.95797817  0.57781119  0.47913790    -0.44100
N1147       N  0.05007772  0.70026867  0.46445807    -0.41400
N1148       N  0.01286522  0.57632249  0.50267835    -0.42900
H1149       H  0.04503840  0.61022850  0.47475239     0.13300
H1150       H  0.01310992  0.66269614  0.48972073     0.09800
H1151       H  0.01731069  0.64971461  0.51766493     0.10900
H1152       H  0.93529913  0.57999463  0.51085147     0.16700
C1153       C  0.96857264  0.35122084  0.50538900    -0.01500
C1154       C  0.99267111  0.36979270  0.50711565     0.07100
C1155       C  0.99956242  0.38168972  0.51978552    -0.07500
C1156       C  0.98303219  0.37563781  0.53055038     0.04500
C1157       C  0.95879226  0.35726880  0.52876348    -0.14700
C1158       C  0.95203133  0.34505127  0.51616904    -0.08100
C1159       C  0.01066119  0.37807996  0.49570384     0.05400
C1160       C  0.00566777  0.38621348  0.48346044    -0.09200
C1161       C  0.02250289  0.39544540  0.47276375     0.00400
C1162       C  0.04532056  0.39725117  0.47427265     0.00300
C1163       C  0.05027782  0.38902107  0.48652541    -0.12700
C1164       C  0.03316924  0.37929030  0.49710583     0.00800
C1165       C  0.01597455  0.40359256  0.46056394     0.40100
C1166       C  0.03891114  0.37012622  0.50917263     0.36700
C1167       C  0.96023841  0.33823106  0.49264920     0.36400
C1168       C  0.99164765  0.38864041  0.54327690     0.37200
N1169       N  0.01060218  0.41004165  0.45080589    -0.43600
N1170       N  0.04346547  0.36272153  0.51883606    -0.44100
N1171       N  0.99863188  0.39911318  0.55345448    -0.41400
N1172       N  0.95333754  0.32786381  0.48243704    -0.42900
H1173       H  0.93358969  0.33087749  0.51461242     0.13300
H1174       H  0.01792292  0.39615904  0.52119641     0.09800
H1175       H  0.98862466  0.38574336  0.48233697     0.10900
H1176       H  0.06749456  0.38991385  0.48779709     0.16700
C1177       C  0.12159082  0.58202605  0.43102245    -0.01500
C1178       C  0.10164349  0.55856608  0.43077768     0.07100
C1179       C  0.07849031  0.55536467  0.42935686    -0.07500
C1180       C  0.07487606  0.57510595  0.42861879     0.04500
C1181       C  0.09477844  0.59876535  0.42939492    -0.14700
C1182       C  0.11805720  0.60186480  0.43041422    -0.08100
C1183       C  0.10431916  0.53705586  0.43258715     0.05400
C1184       C  0.11108339  0.53260420  0.44544565    -0.09200
C1185       C  0.11180445  0.51147433  0.44794430     0.00400
C1186       C  0.10564818  0.49425808  0.43738820     0.00300
C1187       C  0.09976969  0.49931342  0.42436655    -0.12700
C1188       C  0.09897970  0.52038624  0.42193350     0.00800
C1189       C  0.11858306  0.50793580  0.46148152     0.40100
C1190       C  0.09257676  0.52454032  0.40843266     0.36700
C1191       C  0.14579817  0.58603478  0.43172818     0.36400
C1192       C  0.05042746  0.57036509  0.42771294     0.37200
N1193       N  0.12402409  0.50514263  0.47234227    -0.43600
N1194       N  0.08746340  0.52792880  0.39762097    -0.44100
N1195       N  0.03082978  0.56656554  0.42699504    -0.41400
N1196       N  0.16512945  0.58903758  0.43220258    -0.42900
H1197       H  0.13354767  0.61982437  0.43088948     0.13300
H1198       H  0.06310376  0.53730048  0.42916318     0.09800
H1199       H  0.11525993  0.54545808  0.45366098     0.10900
H1200       H  0.09520787  0.48651509  0.41608706     0.16700
C1201       C  0.24414614  0.43506190  0.42766536    -0.01500
C1202       C  0.23542948  0.43894521  0.44013499     0.07100
C1203       C  0.24872062  0.44229775  0.45215896    -0.07500
C1204       C  0.27010358  0.44144844  0.45201786     0.04500
C1205       C  0.27857332  0.43694428  0.43960668    -0.14700
C1206       C  0.26558325  0.43423825  0.42749379    -0.08100
C1207       C  0.21183845  0.43810613  0.44116452     0.05400
C1208       C  0.19387972  0.42045030  0.44949265    -0.09200
C1209       C  0.17136428  0.41877605  0.45093623     0.00400
C1210       C  0.16620186  0.43480270  0.44372918     0.00300
C1211       C  0.18443117  0.45279527  0.43557533    -0.12700
C1212       C  0.20718742  0.45479929  0.43443875     0.00800
C1213       C  0.15390397  0.40011394  0.45971659     0.40100
C1214       C  0.22576080  0.47462588  0.42676520     0.36700
C1215       C  0.23098768  0.43087634  0.41500645     0.36400
C1216       C  0.28303209  0.44560547  0.46476523     0.37200
N1217       N  0.14002730  0.38519852  0.46682812    -0.43600
N1218       N  0.24076206  0.49053996  0.42068760    -0.44100
N1219       N  0.29341150  0.44900732  0.47497998    -0.41400
N1220       N  0.22060218  0.42761200  0.40480566    -0.42900
H1221       H  0.27181244  0.43079323  0.41789263     0.13300
H1222       H  0.24222011  0.44545042  0.46175641     0.09800
H1223       H  0.19746844  0.40778296  0.45486217     0.10900
H1224       H  0.18101171  0.46554028  0.43017597     0.16700
C1225       C  0.46604394  0.58876155  0.42901617    -0.01500
C1226       C  0.45704898  0.57186934  0.43979973     0.07100
C1227       C  0.47009639  0.57723849  0.45208749    -0.07500
C1228       C  0.49197782  0.59870466  0.45368123     0.04500
C1229       C  0.50162983  0.61517098  0.44264953    -0.14700
C1230       C  0.48822503  0.61002116  0.43045892    -0.08100
C1231       C  0.43488543  0.54791328  0.43831324     0.05400
C1232       C  0.43424326  0.53201479  0.42825263    -0.09200
C1233       C  0.41492001  0.50838146  0.42741666     0.00400
C1234       C  0.39562940  0.50011772  0.43687496     0.00300
C1235       C  0.39597285  0.51641285  0.44663164    -0.12700
C1236       C  0.41530015  0.54003387  0.44741986     0.00800
C1237       C  0.41578606  0.49305691  0.41689562     0.40100
C1238       C  0.41469109  0.55588281  0.45769045     0.36700
C1239       C  0.45261712  0.58491314  0.41649190     0.36400
C1240       C  0.50430281  0.60284004  0.46663993     0.37200
N1241       N  0.41655905  0.48083975  0.40844428    -0.43600
N1242       N  0.41432960  0.56863673  0.46592929    -0.44100
N1243       N  0.51404457  0.60611391  0.47707001    -0.41400
N1244       N  0.44181851  0.58195026  0.40647902    -0.42900
H1245       H  0.49509238  0.62262761  0.42198963     0.13300
H1246       H  0.46335460  0.56431500  0.46041453     0.09800
H1247       H  0.44929039  0.53790043  0.42125463     0.10900
H1248       H  0.38126587  0.51061645  0.45386087     0.16700
C1249       C  0.68487752  0.62613359  0.61013227    -0.01500
C1250       C  0.69560406  0.65100022  0.60756523     0.07100
C1251       C  0.69878567  0.65914515  0.59398448    -0.07500
C1252       C  0.69158708  0.64306832  0.58299671     0.04500
C1253       C  0.68125533  0.61814550  0.58549530    -0.14700
C1254       C  0.67783263  0.60997336  0.59913687    -0.08100
C1255       C  0.70480276  0.66907601  0.61876543     0.05400
C1256       C  0.72364030  0.67110660  0.62698754    -0.09200
C1257       C  0.73479459  0.68961184  0.63660670     0.00400
C1258       C  0.72697331  0.70653411  0.63819611     0.00300
C1259       C  0.70745064  0.70387890  0.63034226    -0.12700
C1260       C  0.69651755  0.68551360  0.62059541     0.00800
C1261       C  0.75422577  0.69071973  0.64464793     0.40100
C1262       C  0.67707315  0.68410237  0.61244300     0.36700
C1263       C  0.68049419  0.61677298  0.62393757     0.36400
C1264       C  0.69448398  0.65274957  0.56932455     0.37200
N1265       N  0.76982240  0.69160253  0.65105972    -0.43600
N1266       N  0.66158952  0.68304203  0.60584107    -0.44100
N1267       N  0.69669680  0.66055613  0.55838551    -0.41400
N1268       N  0.67690944  0.60925891  0.63499898    -0.42900
H1269       H  0.66981911  0.59092388  0.60124168     0.13300
H1270       H  0.70711696  0.67826155  0.59195924     0.09800
H1271       H  0.73015771  0.65859716  0.62557833     0.10900
H1272       H  0.70121645  0.71666091  0.63148136     0.16700
C1273       C  0.79687765  0.54871778  0.56070852    -0.01500
C1274       C  0.79165326  0.56390072  0.55275166     0.07100
C1275       C  0.81001435  0.58188943  0.54476494    -0.07500
C1276       C  0.83318670  0.58489061  0.54451686     0.04500
C1277       C  0.83861556  0.56994458  0.55265402    -0.14700
C1278       C  0.82012737  0.55185965  0.56061055    -0.08100
C1279       C  0.76751465  0.56200911  0.55295265     0.05400
C1280       C  0.75792270  0.56390706  0.56550524    -0.09200
C1281       C  0.73594922  0.56355299  0.56611565     0.00400
C1282       C  0.72329265  0.56185841  0.55388847     0.00300
C1283       C  0.73274881  0.55962003  0.54134802    -0.12700
C1284       C  0.75450604  0.55951095  0.54079615     0.00800
C1285       C  0.72734026  0.56565615  0.57942904     0.40100
C1286       C  0.76299449  0.55661413  0.52762799     0.36700
C1287       C  0.77866317  0.52966201  0.56898769     0.36400
C1288       C  0.85085524  0.60358532  0.53583496     0.37200
N1289       N  0.72041135  0.56726289  0.59010253    -0.43600
N1290       N  0.76985865  0.55437026  0.51707694    -0.44100
N1291       N  0.86484155  0.61856220  0.52879606    -0.41400
N1292       N  0.76407342  0.51450253  0.57567892    -0.42900
H1293       H  0.82382721  0.54013829  0.56687776     0.13300
H1294       H  0.80627866  0.59388045  0.53877943     0.09800
H1295       H  0.76790575  0.56615263  0.57488598     0.10900
H1296       H  0.72316516  0.55802521  0.53189781     0.16700
C1297       C  0.65380811  0.63271693  0.50712070    -0.01500
C1298       C  0.62953676  0.62310617  0.50325729     0.07100
C1299       C  0.61207996  0.60104624  0.50879496    -0.07500
C1300       C  0.61838176  0.58885342  0.51835072     0.04500
C1301       C  0.64256282  0.59891950  0.52262812    -0.14700
C1302       C  0.66013347  0.62057660  0.51671429    -0.08100
C1303       C  0.62189186  0.63541755  0.49325177     0.05400
C1304       C  0.62761974  0.63565330  0.47939441    -0.09200
C1305       C  0.61907932  0.64529915  0.46946442     0.00400
C1306       C  0.60409638  0.65467642  0.47333179     0.00300
C1307       C  0.59931925  0.65539334  0.48735176    -0.12700
C1308       C  0.60815388  0.64594406  0.49728014     0.00800
C1309       C  0.62624975  0.64548953  0.45542044     0.40100
C1310       C  0.60319412  0.64741419  0.51157128     0.36700
C1311       C  0.67237449  0.65540607  0.50175613     0.36400
C1312       C  0.59988889  0.56563293  0.52319597     0.37200
N1313       N  0.63204962  0.64577378  0.44416186    -0.43600
N1314       N  0.59948578  0.64866184  0.52305995    -0.44100
N1315       N  0.58518487  0.54693241  0.52701993    -0.41400
N1316       N  0.68731497  0.67362543  0.49751125    -0.42900
H1317       H  0.67875169  0.62842041  0.51990399     0.13300
H1318       H  0.59348616  0.59329922  0.50557771     0.09800
H1319       H  0.63852678  0.62791154  0.47630576     0.10900
H1320       H  0.58827287  0.66288973  0.49056431     0.16700
C1321       C  0.36243665  0.32463880  0.60582437    -0.01500
C1322       C  0.34441586  0.30068019  0.60835957     0.07100
C1323       C  0.34317189  0.28230330  0.60005676    -0.07500
C1324       C  0.35957304  0.28739615  0.58936648     0.04500
C1325       C  0.37760235  0.31141688  0.58673924    -0.14700
C1326       C  0.37891818  0.32978962  0.59514223    -0.08100
C1327       C  0.32670177  0.29409034  0.61965876     0.05400
C1328       C  0.30223791  0.28377293  0.61639355    -0.09200
C1329       C  0.28464399  0.27512212  0.62667568     0.00400
C1330       C  0.29149396  0.27669836  0.64061038     0.00300
C1331       C  0.31611171  0.28787137  0.64384232    -0.12700
C1332       C  0.33363812  0.29631411  0.63353080     0.00800
C1333       C  0.25978622  0.26455774  0.62253618     0.40100
C1334       C  0.35849867  0.30590128  0.63739308     0.36700
C1335       C  0.36398227  0.34424270  0.61382539     0.36400
C1336       C  0.35800381  0.26749091  0.58165365     0.37200
N1337       N  0.23988460  0.25608608  0.61918177    -0.43600
N1338       N  0.37843680  0.31357649  0.64045767    -0.44100
N1339       N  0.35681377  0.25152729  0.57552139    -0.41400
N1340       N  0.36523138  0.35994201  0.62025900    -0.42900
H1341       H  0.39259250  0.34829491  0.59321281     0.13300
H1342       H  0.32948840  0.26382965  0.60207584     0.09800
H1343       H  0.29685943  0.28207770  0.60572722     0.10900
H1344       H  0.32169874  0.28910224  0.65444165     0.16700
C1345       C  0.38847905  0.39177053  0.48046611    -0.01500
C1346       C  0.37302468  0.37962899  0.49153008     0.07100
C1347       C  0.35014308  0.37732811  0.49191840    -0.07500
C1348       C  0.34243567  0.38685871  0.48144250     0.04500
C1349       C  0.35794200  0.39913526  0.47028921    -0.14700
C1350       C  0.38085587  0.40129472  0.46998355    -0.08100
C1351       C  0.38065773  0.36977713  0.50299335     0.05400
C1352       C  0.38604297  0.38146127  0.51569911    -0.09200
C1353       C  0.39416526  0.37331745  0.52667867     0.00400
C1354       C  0.39663805  0.35273957  0.52507165     0.00300
C1355       C  0.39065609  0.34080196  0.51236661    -0.12700
C1356       C  0.38291445  0.34922516  0.50136329     0.00800
C1357       C  0.39991072  0.38662178  0.53935886     0.40100
C1358       C  0.37757439  0.33662407  0.48845378     0.36700
C1359       C  0.41251407  0.39530036  0.47986038     0.36400
C1360       C  0.31870252  0.38397056  0.48261604     0.37200
N1361       N  0.40455703  0.39742262  0.54947543    -0.43600
N1362       N  0.37343817  0.32662171  0.47807958    -0.44100
N1363       N  0.29967146  0.38161189  0.48363608    -0.41400
N1364       N  0.43180473  0.39820197  0.47937493    -0.42900
H1365       H  0.39302909  0.41064259  0.46156647     0.13300
H1366       H  0.33828901  0.36807858  0.50047452     0.09800
H1367       H  0.38429162  0.39728669  0.51695246     0.10900
H1368       H  0.39249914  0.32507817  0.51089335     0.16700
C1369       C  0.53168400  0.41461616  0.56689592    -0.01500
C1370       C  0.54124881  0.42855373  0.55493434     0.07100
C1371       C  0.52917912  0.41985679  0.54244495    -0.07500
C1372       C  0.50710349  0.39838946  0.54185553     0.04500
C1373       C  0.49660208  0.38527166  0.55403040    -0.14700
C1374       C  0.50943234  0.39335212  0.56638460    -0.08100
C1375       C  0.56311502  0.45276483  0.55524772     0.05400
C1376       C  0.58285097  0.45734664  0.54699738    -0.09200
C1377       C  0.60334794  0.48025426  0.54649943     0.00400
C1378       C  0.60442899  0.49911861  0.55453942     0.00300
C1379       C  0.58452704  0.49443008  0.56272388    -0.12700
C1380       C  0.56391719  0.47167939  0.56299530     0.00800
C1381       C  0.62269441  0.48376900  0.53749292     0.40100
C1382       C  0.54345115  0.46848908  0.57085810     0.36700
C1383       C  0.54427785  0.42185481  0.57982290     0.36400
C1384       C  0.49527088  0.39106344  0.52871175     0.37200
N1385       N  0.63812547  0.48658134  0.53021160    -0.43600
N1386       N  0.52705028  0.46585996  0.57717780    -0.44100
N1387       N  0.48587832  0.38526025  0.51815272    -0.41400
N1388       N  0.55432265  0.42773491  0.59019301    -0.42900
H1389       H  0.50189908  0.38321816  0.57574391     0.13300
H1390       H  0.53662915  0.43035421  0.53318487     0.09800
H1391       H  0.58213516  0.44296754  0.54083041     0.10900
H1392       H  0.58480035  0.50872817  0.56875618     0.16700
C1393       C  0.21999211  0.80613149  0.45019181    -0.01500
C1394       C  0.21762713  0.78576489  0.44339757     0.07100
C1395       C  0.23752587  0.78707019  0.43668305    -0.07500
C1396       C  0.25948636  0.80868023  0.43615990     0.04500
C1397       C  0.26170063  0.82947363  0.44250843    -0.14700
C1398       C  0.24195509  0.82769800  0.44978955    -0.08100
C1399       C  0.19411631  0.76342816  0.44230730     0.05400
C1400       C  0.17785013  0.76216043  0.43232332    -0.09200
C1401       C  0.15574164  0.74110547  0.43047317     0.00400
C1402       C  0.14946406  0.72091554  0.43893472     0.00300
C1403       C  0.16574253  0.72244749  0.44908309    -0.12700
C1404       C  0.18807303  0.74338431  0.45069350     0.00800
C1405       C  0.13987256  0.74097823  0.41993588     0.40100
C1406       C  0.20464630  0.74386089  0.46086129     0.36700
C1407       C  0.19996078  0.80543362  0.45734771     0.36400
C1408       C  0.27927722  0.80888960  0.42901293     0.37200
N1409       N  0.12728869  0.74098088  0.41143851    -0.43600
N1410       N  0.21802083  0.74423521  0.46894830    -0.44100
N1411       N  0.29509321  0.80895901  0.42327964    -0.41400
N1412       N  0.18392131  0.80491430  0.46307539    -0.42900
H1413       H  0.24335200  0.84341841  0.45477505     0.13300
H1414       H  0.23567135  0.77127853  0.43153226     0.09800
H1415       H  0.18261584  0.77763615  0.42584699     0.10900
H1416       H  0.16124413  0.70707803  0.45559016     0.16700
C1417       C  0.56911143  0.81572945  0.43449271    -0.01500
C1418       C  0.56018269  0.80112348  0.44623892     0.07100
C1419       C  0.55225083  0.80905396  0.45740017    -0.07500
C1420       C  0.55289181  0.83118185  0.45694673     0.04500
C1421       C  0.56157381  0.84574532  0.44507196    -0.14700
C1422       C  0.56949420  0.83763541  0.43394540    -0.08100
C1423       C  0.55983876  0.77792906  0.44718859     0.05400
C1424       C  0.57585287  0.77603793  0.45615382    -0.09200
C1425       C  0.57752382  0.75513275  0.45661102     0.00400
C1426       C  0.56287862  0.73552309  0.44791670     0.00300
C1427       C  0.54619232  0.73725145  0.43931332    -0.12700
C1428       C  0.54454255  0.75815656  0.43891764     0.00800
C1429       C  0.59451342  0.75455215  0.46607426     0.40100
C1430       C  0.52699311  0.75894097  0.42998791     0.36700
C1431       C  0.57889300  0.80907554  0.42308727     0.36400
C1432       C  0.54434644  0.83822690  0.46875986     0.37200
N1433       N  0.60813782  0.75420102  0.47370785    -0.43600
N1434       N  0.51293108  0.75962237  0.42285982    -0.44100
N1435       N  0.53751531  0.84379470  0.47827120    -0.41400
N1436       N  0.58685665  0.80384350  0.41396818    -0.42900
H1437       H  0.57651909  0.84867909  0.42483488     0.13300
H1438       H  0.54555126  0.79789717  0.46648877     0.09800
H1439       H  0.58747618  0.79119783  0.46261335     0.10900
H1440       H  0.53461078  0.72237606  0.43267914     0.16700
C1441       C  0.47155621  0.91550619  0.42778778    -0.01500
C1442       C  0.45128349  0.89581463  0.43374758     0.07100
C1443       C  0.45384974  0.87763532  0.44008369    -0.07500
C1444       C  0.47637307  0.87921066  0.44098995     0.04500
C1445       C  0.49693076  0.89938528  0.43542769    -0.14700
C1446       C  0.49406114  0.91707207  0.42860854    -0.08100
C1447       C  0.42750950  0.89443209  0.43411515     0.05400
C1448       C  0.41479409  0.89132543  0.42188278    -0.09200
C1449       C  0.39244198  0.89033042  0.42190595     0.00400
C1450       C  0.38260768  0.89275467  0.43439197     0.00300
C1451       C  0.39528614  0.89537644  0.44662314    -0.12700
C1452       C  0.41746715  0.89622668  0.44658255     0.00800
C1453       C  0.37994247  0.88627321  0.40902287     0.40100
C1454       C  0.42992483  0.89968902  0.45944710     0.36700
C1455       C  0.46999178  0.93493390  0.42137916     0.36400
C1456       C  0.47767515  0.85985627  0.44769852     0.37200
N1457       N  0.37001936  0.88284779  0.39864504    -0.43600
N1458       N  0.43985162  0.90243691  0.46976969    -0.44100
N1459       N  0.47860352  0.84428170  0.45307538    -0.41400
N1460       N  0.46890178  0.95060542  0.41625539    -0.42900
H1461       H  0.50959122  0.93264856  0.42427989     0.13300
H1462       H  0.43820384  0.86234214  0.44455061     0.09800
H1463       H  0.42234928  0.88958676  0.41230254     0.10900
H1464       H  0.38809653  0.89725611  0.45630561     0.16700
C1465       C  0.72009662  0.02303229  0.61402692    -0.01500
C1466       C  0.71183455  0.03894615  0.61751249     0.07100
C1467       C  0.71238792  0.04555302  0.63124015    -0.07500
C1468       C  0.72175740  0.03719653  0.64144644     0.04500
C1469       C  0.73062753  0.02165816  0.63794819    -0.14700
C1470       C  0.72946753  0.01463480  0.62419588    -0.08100
C1471       C  0.70355603  0.04980454  0.60694428     0.05400
C1472       C  0.67918147  0.04319088  0.60642421    -0.09200
C1473       C  0.67080567  0.05330810  0.59666811     0.00400
C1474       C  0.68709238  0.07063951  0.58731263     0.00300
C1475       C  0.71150184  0.07719443  0.58788312    -0.12700
C1476       C  0.71981620  0.06703736  0.59761645     0.00800
C1477       C  0.64529668  0.04472815  0.59608397     0.40100
C1478       C  0.74517914  0.07485002  0.59803244     0.36700
C1479       C  0.71909920  0.01507059  0.60008654     0.36400
C1480       C  0.72307177  0.04589041  0.65523827     0.37200
N1481       N  0.62483870  0.03775949  0.59553463    -0.43600
N1482       N  0.76546650  0.08097307  0.59841413    -0.44100
N1483       N  0.72416674  0.05298148  0.66626561    -0.41400
N1484       N  0.71830614  0.00868652  0.58891601    -0.42900
H1485       H  0.73605693  0.00265326  0.62133562     0.13300
H1486       H  0.70611086  0.05787259  0.63391897     0.09800
H1487       H  0.66663616  0.02985247  0.61355347     0.10900
H1488       H  0.72420102  0.09049233  0.58079196     0.16700
C1489       C  0.62853224  0.04022918  0.50191492    -0.01500
C1490       C  0.62089619  0.01584410  0.50440372     0.07100
C1491       C  0.62274390  0.00855748  0.51765733    -0.07500
C1492       C  0.63180355  0.02506481  0.52846516     0.04500
C1493       C  0.63986960  0.04968148  0.52599608    -0.14700
C1494       C  0.63813792  0.05691375  0.51263170    -0.08100
C1495       C  0.61115586  0.99757860  0.49334037     0.05400
C1496       C  0.62480859  0.98736121  0.48887281    -0.09200
C1497       C  0.61625533  0.96986670  0.47855570     0.00400
C1498       C  0.59347665  0.96220981  0.47255679     0.00300
C1499       C  0.57985429  0.97250332  0.47708837    -0.12700
C1500       C  0.58840013  0.98989487  0.48745223     0.00800
C1501       C  0.63166489  0.96083959  0.47402446     0.40100
C1502       C  0.57328052  0.99916739  0.49213200     0.36700
C1503       C  0.62663694  0.04851344  0.48846295     0.36400
C1504       C  0.63240162  0.01602111  0.54192534     0.37200
N1505       N  0.64411090  0.95371860  0.47039083    -0.43600
N1506       N  0.56118130  0.00660465  0.49590849    -0.44100
N1507       N  0.63267915  0.00865523  0.55271034    -0.41400
N1508       N  0.62489564  0.05509544  0.47770859    -0.42900
H1509       H  0.64395893  0.07561301  0.51056017     0.13300
H1510       H  0.61676579  0.98976829  0.51958871     0.09800
H1511       H  0.64233361  0.99327158  0.49339386     0.10900
H1512       H  0.56230084  0.96672058  0.47264922     0.16700
C1513       C  0.74778114  0.21046560  0.56305034    -0.01500
C1514       C  0.76893903  0.21395506  0.55660922     0.07100
C1515       C  0.76854315  0.19479731  0.54954585    -0.07500
C1516       C  0.74760023  0.17222797  0.54897841     0.04500
C1517       C  0.72633961  0.16846238  0.55562044    -0.14700
C1518       C  0.72678124  0.18786388  0.56256727    -0.08100
C1519       C  0.79196771  0.23716986  0.55743168     0.05400
C1520       C  0.80493923  0.24352383  0.56975041    -0.09200
C1521       C  0.82761646  0.26434698  0.57067791     0.00400
C1522       C  0.83768981  0.27941233  0.55907232     0.00300
C1523       C  0.82439291  0.27307824  0.54680457    -0.12700
C1524       C  0.80176298  0.25222676  0.54591915     0.00800
C1525       C  0.84045181  0.26904684  0.58349438     0.40100
C1526       C  0.78877809  0.24667542  0.53312465     0.36700
C1527       C  0.74713155  0.22996746  0.56997155     0.36400
C1528       C  0.74889622  0.15318810  0.54190054     0.37200
N1529       N  0.85067326  0.27264604  0.59378052    -0.43600
N1530       N  0.77829556  0.24221837  0.52289264    -0.44100
N1531       N  0.75004120  0.13798165  0.53623305    -0.41400
N1532       N  0.74660471  0.24566260  0.57544301    -0.42900
H1533       H  0.71066662  0.18541705  0.56762657     0.13300
H1534       H  0.78484792  0.19742406  0.54463002     0.09800
H1535       H  0.79754906  0.23181189  0.57858429     0.10900
H1536       H  0.83171689  0.28441221  0.53782507     0.16700
C1537       C  0.35716540  0.03043631  0.60628217    -0.01500
C1538       C  0.33848160  0.03569444  0.60826435     0.07100
C1539       C  0.33654532  0.05157805  0.59919220    -0.07500
C1540       C  0.35254019  0.06200215  0.58823260     0.04500
C1541       C  0.37143185  0.05695220  0.58623685    -0.14700
C1542       C  0.37336832  0.04098291  0.59532608    -0.08100
C1543       C  0.32094203  0.02539423  0.61981928     0.05400
C1544       C  0.32933682  0.03052255  0.63337530    -0.09200
C1545       C  0.31327340  0.02355554  0.64446196     0.00400
C1546       C  0.28814412  0.01132336  0.64206533     0.00300
C1547       C  0.27981683  0.00553575  0.62851544    -0.12700
C1548       C  0.29587351  0.01228300  0.61747438     0.00800
C1549       C  0.32320157  0.03049702  0.65806916     0.40100
C1550       C  0.28615564  0.00559029  0.60380607     0.36700
C1551       C  0.35973110  0.01389055  0.61517053     0.36400
C1552       C  0.34847934  0.07715561  0.57896376     0.37200
N1553       N  0.33121916  0.03611606  0.66896136    -0.43600
N1554       N  0.27834160  0.00022684  0.59285811    -0.44100
N1555       N  0.34522124  0.08921695  0.57147649    -0.41400
N1556       N  0.36176391  0.00064342  0.62232437    -0.42900
H1557       H  0.38758395  0.03673791  0.59389950     0.13300
H1558       H  0.32233892  0.05583862  0.60067674     0.09800
H1559       H  0.34854709  0.04080643  0.63527820     0.10900
H1560       H  0.26062558  0.99596020  0.62649978     0.16700
C1561       C  0.38591559  0.02372648  0.49838377    -0.01500
C1562       C  0.36302382  0.00303964  0.49976731     0.07100
C1563       C  0.34968898  0.99990809  0.51175417    -0.07500
C1564       C  0.35892690  0.01689896  0.52235451     0.04500
C1565       C  0.38205548  0.03744502  0.52105446    -0.14700
C1566       C  0.39507120  0.04076280  0.50890516    -0.08100
C1567       C  0.35330288  0.98394080  0.48912923     0.05400
C1568       C  0.35012557  0.96128697  0.49240930    -0.09200
C1569       C  0.34279138  0.94327895  0.48245044     0.00400
C1570       C  0.33850171  0.94786148  0.46885143     0.00300
C1571       C  0.34104939  0.97036181  0.46570384    -0.12700
C1572       C  0.34814729  0.98824516  0.47571809     0.00800
C1573       C  0.34091083  0.92073023  0.48637704     0.40100
C1574       C  0.34982348  0.01079957  0.47204637     0.36700
C1575       C  0.40086767  0.02733351  0.48655344     0.36400
C1576       C  0.34406762  0.01300056  0.53427017     0.37200
N1577       N  0.33942911  0.90265805  0.48948986    -0.43600
N1578       N  0.35121658  0.02890878  0.46913220    -0.44100
N1579       N  0.33204980  0.00986644  0.54377000    -0.41400
N1580       N  0.41284801  0.03025537  0.47706811    -0.42900
H1581       H  0.41291519  0.05630996  0.50781389     0.13300
H1582       H  0.33204942  0.98407599  0.51283928     0.09800
H1583       H  0.35403478  0.95789103  0.50271826     0.10900
H1584       H  0.33743276  0.97400464  0.45538548     0.16700
C1585       C  0.52392008  0.10958894  0.56746625    -0.01500
C1586       C  0.53278983  0.10019837  0.55745576     0.07100
C1587       C  0.51798394  0.08741457  0.54637724    -0.07500
C1588       C  0.49461809  0.08379601  0.54516750     0.04500
C1589       C  0.48555444  0.09305649  0.55524975    -0.14700
C1590       C  0.50050256  0.10590259  0.56632982    -0.08100
C1591       C  0.55713744  0.10278531  0.55851293     0.05400
C1592       C  0.56159770  0.09030961  0.56884514    -0.09200
C1593       C  0.58362630  0.09065789  0.56953265     0.00400
C1594       C  0.60196678  0.10413635  0.55984661     0.00300
C1595       C  0.59754075  0.11701075  0.54970410    -0.12700
C1596       C  0.57539557  0.11629804  0.54890914     0.00800
C1597       C  0.58621556  0.07589480  0.57978777     0.40100
C1598       C  0.57178438  0.12944552  0.53805733     0.36700
C1599       C  0.53874866  0.12356475  0.57880617     0.36400
C1600       C  0.48020967  0.06983886  0.53369315     0.37200
N1601       N  0.58813431  0.06387398  0.58794472    -0.43600
N1602       N  0.56898407  0.13994888  0.52929749    -0.44100
N1603       N  0.46871899  0.05859061  0.52449640    -0.41400
N1604       N  0.55065827  0.13484567  0.58787170    -0.42900
H1605       H  0.49400260  0.11337768  0.57406456     0.13300
H1606       H  0.52464932  0.07996231  0.53871900     0.09800
H1607       H  0.54747369  0.07958819  0.57613050     0.10900
H1608       H  0.61129984  0.12739000  0.54216787     0.16700
C1609       C  0.40770646  0.17900993  0.54431112    -0.01500
C1610       C  0.42991816  0.19984950  0.54703477     0.07100
C1611       C  0.45034551  0.19778105  0.54933463    -0.07500
C1612       C  0.44883174  0.17526306  0.54930864     0.04500
C1613       C  0.42633761  0.15415012  0.54730294    -0.14700
C1614       C  0.40605125  0.15640757  0.54449079    -0.08100
C1615       C  0.43189895  0.22379730  0.54822168     0.05400
C1616       C  0.43455595  0.23391966  0.56127252    -0.09200
C1617       C  0.43471234  0.25563502  0.56306222     0.00400
C1618       C  0.43243880  0.26779867  0.55154290     0.00300
C1619       C  0.43051781  0.25787233  0.53844007    -0.12700
C1620       C  0.43020271  0.23609557  0.53671299     0.00800
C1621       C  0.43619341  0.26427232  0.57688620     0.40100
C1622       C  0.42791804  0.22660286  0.52305059     0.36700
C1623       C  0.38629868  0.18044152  0.54171435     0.36400
C1624       C  0.47076716  0.17447120  0.55103187     0.37200
N1625       N  0.43727791  0.27101311  0.58800109    -0.43600
N1626       N  0.42600126  0.21898703  0.51209264    -0.44100
N1627       N  0.48834858  0.17379401  0.55229281    -0.41400
N1628       N  0.36932061  0.18186624  0.53956386    -0.42900
H1629       H  0.38870484  0.14045971  0.54281643     0.13300
H1630       H  0.46752636  0.21384723  0.55119647     0.09800
H1631       H  0.43581334  0.22442399  0.57014456     0.10900
H1632       H  0.42893350  0.26697936  0.52948040     0.16700
C1633       C  0.41674233  0.87566759  0.05432768    -0.01500
C1634       C  0.43876790  0.89459390  0.05924574     0.07100
C1635       C  0.43975294  0.91564869  0.06400078    -0.07500
C1636       C  0.41933928  0.91822189  0.06375904     0.04500
C1637       C  0.39728074  0.89937869  0.05868646    -0.14700
C1638       C  0.39628351  0.87820763  0.05404211    -0.08100
C1639       C  0.46139826  0.89358223  0.05865810     0.05400
C1640       C  0.47088040  0.89304081  0.04581413    -0.09200
C1641       C  0.49317308  0.89413031  0.04464257     0.00400
C1642       C  0.50643977  0.89557505  0.05657895     0.00300
C1643       C  0.49653704  0.89557270  0.06945664    -0.12700
C1644       C  0.47435205  0.89473435  0.07056902     0.00800
C1645       C  0.50211584  0.89457430  0.03101206     0.40100
C1646       C  0.46525061  0.89513510  0.08403862     0.36700
C1647       C  0.41467320  0.85339620  0.04967811     0.36400
C1648       C  0.42197919  0.94091416  0.06805632     0.37200
N1649       N  0.50909901  0.89502637  0.02002073    -0.43600
N1650       N  0.45797772  0.89551561  0.09483008    -0.44100
N1651       N  0.42412000  0.95914098  0.07142893    -0.41400
N1652       N  0.41301975  0.83553286  0.04597511    -0.42900
H1653       H  0.37945924  0.86355964  0.05021250     0.13300
H1654       H  0.45674992  0.93040909  0.06757336     0.09800
H1655       H  0.46108786  0.89246144  0.03662329     0.10900
H1656       H  0.50632991  0.89665340  0.07873392     0.16700
C1657       C  0.72695718  0.04892950  0.86173944    -0.01500
C1658       C  0.72771442  0.04269557  0.87552902     0.07100
C1659       C  0.73686292  0.02744272  0.87857254    -0.07500
C1660       C  0.74591255  0.01904239  0.86822927     0.04500
C1661       C  0.74533940  0.02543544  0.85439592    -0.14700
C1662       C  0.73544065  0.04007573  0.85134696    -0.08100
C1663       C  0.71917222  0.05197293  0.88691043     0.05400
C1664       C  0.69536293  0.04735683  0.88676141    -0.09200
C1665       C  0.68673224  0.05611333  0.89712765     0.00400
C1666       C  0.70189051  0.06928214  0.90814784     0.00300
C1667       C  0.72557710  0.07350733  0.90844195    -0.12700
C1668       C  0.73439427  0.06529828  0.89786816     0.00800
C1669       C  0.66208296  0.05080027  0.89634402     0.40100
C1670       C  0.75938867  0.07164163  0.89819441     0.36700
C1671       C  0.71871620  0.06537390  0.85804340     0.36400
C1672       C  0.75573955  0.00404649  0.87221965     0.37200
N1673       N  0.64235076  0.04661597  0.89571858    -0.43600
N1674       N  0.77942753  0.07676432  0.89839597    -0.44100
N1675       N  0.76370430  0.99214668  0.87550531    -0.41400
N1676       N  0.71218341  0.07861250  0.85509126    -0.42900
H1677       H  0.73510967  0.04539073  0.84083381     0.13300
H1678       H  0.73718887  0.02230283  0.88912658     0.09800
H1679       H  0.68346526  0.03687115  0.87847819     0.10900
H1680       H  0.73745487  0.08382030  0.91676970     0.16700
C1681       C  0.62673085  0.00808867  0.98071700    -0.01500
C1682       C  0.63910738  0.01310115  0.99329414     0.07100
C1683       C  0.66004072  0.03542223  0.99511707    -0.07500
C1684       C  0.66875469  0.05268428  0.98460969     0.04500
C1685       C  0.65631184  0.04772653  0.97196636    -0.14700
C1686       C  0.63538047  0.02527212  0.97020842    -0.08100
C1687       C  0.63016356  0.99532603  0.00469927     0.05400
C1688       C  0.63236511  0.97473923  0.00374457    -0.09200
C1689       C  0.62296854  0.95693911  0.01395296     0.00400
C1690       C  0.61095899  0.95956862  0.02544674     0.00300
C1691       C  0.60922050  0.98051347  0.02641661    -0.12700
C1692       C  0.61864638  0.99824076  0.01620688     0.00800
C1693       C  0.62564813  0.93611048  0.01214867     0.40100
C1694       C  0.61555447  0.01891192  0.01749191     0.36700
C1695       C  0.60479321  0.98559259  0.97850161     0.36400
C1696       C  0.69088584  0.07493064  0.98697143     0.37200
N1697       N  0.62784660  0.91945305  0.01063277    -0.43600
N1698       N  0.61306604  0.03548104  0.01846481    -0.44100
N1699       N  0.70867988  0.09271473  0.98885625    -0.41400
N1700       N  0.58719567  0.96755132  0.97678104    -0.42900
H1701       H  0.62552642  0.02118058  0.96063135     0.13300
H1702       H  0.66966433  0.03929327  0.00476687     0.09800
H1703       H  0.64122974  0.97245942  0.99488430     0.10900
H1704       H  0.60009169  0.98294686  0.03508739     0.16700
C1705       C  0.34467413  0.04982985  0.86542593    -0.01500
C1706       C  0.33938079  0.04056207  0.87884797     0.07100
C1707       C  0.31618469  0.02183306  0.88196299    -0.07500
C1708       C  0.29809050  0.01265302  0.87196301     0.04500
C1709       C  0.30314684  0.02250675  0.85859142    -0.14700
C1710       C  0.32665587  0.04070482  0.85543150    -0.08100
C1711       C  0.35745858  0.05113687  0.88994195     0.05400
C1712       C  0.35481552  0.06552676  0.89975531    -0.09200
C1713       C  0.37176722  0.07654111  0.91021741     0.00400
C1714       C  0.39177264  0.07295396  0.91106414     0.00300
C1715       C  0.39443261  0.05862936  0.90109817    -0.12700
C1716       C  0.37744846  0.04770049  0.89061604     0.00800
C1717       C  0.36840709  0.09189710  0.91966337     0.40100
C1718       C  0.38055815  0.03265623  0.88081062     0.36700
C1719       C  0.36818202  0.06944601  0.86185423     0.36400
C1720       C  0.27467922  0.99301944  0.87568750     0.37200
N1721       N  0.36577059  0.10427652  0.92720621    -0.43600
N1722       N  0.38291941  0.02056255  0.87291943    -0.44100
N1723       N  0.25596431  0.97719872  0.87866752    -0.41400
N1724       N  0.38704404  0.08516208  0.85902557    -0.42900
H1725       H  0.33077987  0.04857576  0.84525902     0.13300
H1726       H  0.31217518  0.01457329  0.89227788     0.09800
H1727       H  0.33956713  0.06841178  0.89911056     0.10900
H1728       H  0.40959749  0.05561837  0.90160098     0.16700
C1729       C  0.39202102  0.99056877  0.01308023    -0.01500
C1730       C  0.37732894  0.98823030  0.00179289     0.07100
C1731       C  0.35395219  0.96841278  0.00110037    -0.07500
C1732       C  0.34498250  0.95114754  0.01161165     0.04500
C1733       C  0.35969400  0.95354225  0.02300231    -0.14700
C1734       C  0.38316463  0.97336640  0.02353786    -0.08100
C1735       C  0.38609592  0.00683356  0.99088704     0.05400
C1736       C  0.39537075  0.00306363  0.97875639    -0.09200
C1737       C  0.40608793  0.02122835  0.96883932     0.00400
C1738       C  0.40768676  0.04380608  0.97102631     0.00300
C1739       C  0.39779966  0.04721816  0.98310307    -0.12700
C1740       C  0.38699920  0.02895472  0.99294925     0.00800
C1741       C  0.41605317  0.01636099  0.95681521     0.40100
C1742       C  0.37705962  0.03324094  0.00518235     0.36700
C1743       C  0.41627388  0.01057599  0.01412601     0.36400
C1744       C  0.32031550  0.93191648  0.01075685     0.37200
N1745       N  0.42406083  0.01244547  0.94719161    -0.43600
N1746       N  0.36898638  0.03644844  0.01501433    -0.44100
N1747       N  0.30049865  0.91657581  0.01013087    -0.41400
N1748       N  0.43568580  0.02666025  0.01491460    -0.42900
H1749       H  0.39471137  0.97546584  0.03216806     0.13300
H1750       H  0.34255107  0.96671670  0.99247253     0.09800
H1751       H  0.39480329  0.98607695  0.97720737     0.10900
H1752       H  0.39855758  0.06422611  0.98490473     0.16700
C1753       C  0.53893046  0.10039902  0.95183107    -0.01500
C1754       C  0.55274036  0.10725701  0.93968581     0.07100
C1755       C  0.54460674  0.11453413  0.92831223    -0.07500
C1756       C  0.52298999  0.11493522  0.92884753     0.04500
C1757       C  0.50896857  0.10774855  0.94094981    -0.14700
C1758       C  0.51739435  0.10091589  0.95240343    -0.08100
C1759       C  0.57558000  0.10674395  0.93857921     0.05400
C1760       C  0.57694437  0.09066384  0.92941112    -0.09200
C1761       C  0.59785223  0.08894341  0.92845478     0.00400
C1762       C  0.61797947  0.10359324  0.93685327     0.00300
C1763       C  0.61674152  0.12029532  0.94562055    -0.12700
C1764       C  0.59590496  0.12201694  0.94650853     0.00800
C1765       C  0.59785904  0.07187115  0.91884518     0.40100
C1766       C  0.59585674  0.13969648  0.95560103     0.36700
C1767       C  0.54597956  0.09187001  0.96366374     0.36400
C1768       C  0.51604718  0.12346743  0.91697004     0.37200
N1769       N  0.59769615  0.05817767  0.91108807    -0.43600
N1770       N  0.59579614  0.15380280  0.96293322    -0.44100
N1771       N  0.51055601  0.13042505  0.90747429    -0.41400
N1772       N  0.55158104  0.08504499  0.97317084    -0.42900
H1773       H  0.50672498  0.09518169  0.96170858     0.13300
H1774       H  0.55527542  0.12003459  0.91900432     0.09800
H1775       H  0.56144494  0.07912968  0.92314151     0.10900
H1776       H  0.63203848  0.13193795  0.95199219     0.16700
C1777       C  0.95967709  0.64639607  0.88898693    -0.01500
C1778       C  0.96659892  0.67040712  0.89212412     0.07100
C1779       C  0.96354294  0.67624267  0.90553015    -0.07500
C1780       C  0.95373832  0.65862842  0.91578573     0.04500
C1781       C  0.94645273  0.63440157  0.91264219    -0.14700
C1782       C  0.94977487  0.62870931  0.89919787    -0.08100
C1783       C  0.97568133  0.68945270  0.88142358     0.05400
C1784       C  0.96140412  0.69942923  0.87780470    -0.09200
C1785       C  0.96881123  0.71708794  0.86763315     0.00400
C1786       C  0.99101600  0.72512710  0.86080809     0.00300
C1787       C  0.00534179  0.71513719  0.86444584    -0.12700
C1788       C  0.99800024  0.69765411  0.87479438     0.00800
C1789       C  0.95273733  0.72587890  0.86403799     0.40100
C1790       C  0.01392836  0.68892191  0.87876407     0.36700
C1791       C  0.96186409  0.63934693  0.87525962     0.36400
C1792       C  0.95161893  0.66614622  0.92940603     0.37200
N1793       N  0.93985321  0.73288848  0.86112595    -0.43600
N1794       N  0.02666885  0.68192606  0.88202115    -0.44100
N1795       N  0.94999974  0.67222460  0.94032213    -0.41400
N1796       N  0.96371573  0.63374993  0.86426107    -0.42900
H1797       H  0.94427468  0.61028661  0.89655859     0.13300
H1798       H  0.96881307  0.69469246  0.90797408     0.09800
H1799       H  0.94420990  0.69313290  0.88284568     0.10900
H1800       H  0.02251249  0.72135072  0.85940206     0.16700
C1801       C  0.95536052  0.31667432  0.88720551    -0.01500
C1802       C  0.97719133  0.31726749  0.89003148     0.07100
C1803       C  0.98832408  0.32576231  0.90277977    -0.07500
C1804       C  0.97763187  0.33295825  0.91283756     0.04500
C1805       C  0.95518226  0.33136255  0.91022996    -0.14700
C1806       C  0.94460998  0.32374708  0.89724787    -0.08100
C1807       C  0.98807105  0.30825300  0.87991630     0.05400
C1808       C  0.99695070  0.32063292  0.86752384    -0.09200
C1809       C  0.00479850  0.31122989  0.85706622     0.00400
C1810       C  0.00419230  0.28909844  0.85904797     0.00300
C1811       C  0.99627703  0.27735990  0.87176255    -0.12700
C1812       C  0.98797132  0.28653301  0.88206058     0.00800
C1813       C  0.01258336  0.32440306  0.84434785     0.40100
C1814       C  0.97780165  0.27243943  0.89432599     0.36700
C1815       C  0.94315141  0.30785232  0.87426876     0.36400
C1816       C  0.99036600  0.34242467  0.92557141     0.37200
N1817       N  0.01865568  0.33505206  0.83416879    -0.43600
N1818       N  0.96944075  0.26097800  0.90407411    -0.44100
N1819       N  0.00063787  0.35018522  0.93573960    -0.41400
N1820       N  0.93348079  0.30076322  0.86387579    -0.42900
H1821       H  0.92743948  0.32248422  0.89507702     0.13300
H1822       H  0.00532888  0.32661640  0.90488846     0.09800
H1823       H  0.99698898  0.33734498  0.86586296     0.10900
H1824       H  0.99551649  0.26032543  0.87349272     0.16700
C1825       C  0.76420899  0.20462850  0.93177439    -0.01500
C1826       C  0.78293175  0.20986080  0.94112200     0.07100
C1827       C  0.78002575  0.19246968  0.95078449    -0.07500
C1828       C  0.75905425  0.16984550  0.95105847     0.04500
C1829       C  0.74036451  0.16424949  0.94146432    -0.14700
C1830       C  0.74325095  0.18200055  0.93196331    -0.08100
C1831       C  0.80587330  0.23323470  0.94083449     0.05400
C1832       C  0.81022374  0.25044874  0.95092211    -0.09200
C1833       C  0.83167405  0.27269387  0.95099529     0.00400
C1834       C  0.84951388  0.27790327  0.94090811     0.00300
C1835       C  0.84492441  0.26057490  0.93075840    -0.12700
C1836       C  0.82339351  0.23844873  0.93065830     0.00800
C1837       C  0.83446906  0.28997333  0.96131979     0.40100
C1838       C  0.81978609  0.22115189  0.92015270     0.36700
C1839       C  0.76606529  0.22237460  0.92201719     0.36400
C1840       C  0.75753596  0.15273272  0.96117746     0.37200
N1841       N  0.83663978  0.30387082  0.96955104    -0.43600
N1842       N  0.81681991  0.20724571  0.91174667    -0.44100
N1843       N  0.75626778  0.13898604  0.96928180    -0.41400
N1844       N  0.76761568  0.23669996  0.91425213    -0.42900
H1845       H  0.72911252  0.17823402  0.92462114     0.13300
H1846       H  0.79437820  0.19650066  0.95803027     0.09800
H1847       H  0.79666907  0.24655641  0.95869101     0.10900
H1848       H  0.85830132  0.26417171  0.92293014     0.16700
C1849       C  0.88427317  0.42125440  0.94169877    -0.01500
C1850       C  0.90022882  0.44151354  0.93387141     0.07100
C1851       C  0.91743895  0.44018097  0.92563026    -0.07500
C1852       C  0.91953197  0.41949939  0.92546117     0.04500
C1853       C  0.90438859  0.39963184  0.93387134    -0.14700
C1854       C  0.88644847  0.40062552  0.94163172    -0.08100
C1855       C  0.90056691  0.46481545  0.93497169     0.05400
C1856       C  0.90471077  0.47588918  0.94784915    -0.09200
C1857       C  0.90649720  0.49837419  0.94939490     0.00400
C1858       C  0.90427296  0.51043719  0.93783927     0.00300
C1859       C  0.90015937  0.49935762  0.92492536    -0.12700
C1860       C  0.89822710  0.47673759  0.92342003     0.00800
C1861       C  0.91186122  0.50907398  0.96287137     0.40100
C1862       C  0.89364059  0.46602412  0.90995849     0.36700
C1863       C  0.86566163  0.42127735  0.95000005     0.36400
C1864       C  0.93754530  0.41942026  0.91663438     0.37200
N1865       N  0.91624962  0.51764689  0.97367138    -0.43600
N1866       N  0.89005237  0.45740688  0.89918060    -0.44100
N1867       N  0.95194372  0.41937604  0.90951637    -0.41400
N1868       N  0.85079471  0.42131502  0.95668847    -0.42900
H1869       H  0.87446426  0.38549259  0.94800936     0.13300
H1870       H  0.92979400  0.45566137  0.91958978     0.09800
H1871       H  0.90712277  0.46712944  0.95672141     0.10900
H1872       H  0.89838873  0.50835999  0.91597034     0.16700
C1873       C  0.97233822  0.60878861  0.99729235    -0.01500
C1874       C  0.99732141  0.62261214  0.99486509     0.07100
C1875       C  0.00556930  0.62855252  0.98131446    -0.07500
C1876       C  0.98942409  0.62061743  0.97025885     0.04500
C1877       C  0.96441829  0.60615139  0.97267275    -0.14700
C1878       C  0.95620600  0.60072459  0.98626623    -0.08100
C1879       C  0.01507929  0.63027239  0.00629454     0.05400
C1880       C  0.01592732  0.61261847  0.01433364    -0.09200
C1881       C  0.03218652  0.61882540  0.02524132     0.00400
C1882       C  0.04844064  0.64333501  0.02822231     0.00300
C1883       C  0.04763422  0.66098896  0.02005455    -0.12700
C1884       C  0.03111119  0.65468448  0.00924364     0.00800
C1885       C  0.03167686  0.59949628  0.03306394     0.40100
C1886       C  0.03038542  0.67355928  0.00160411     0.36700
C1887       C  0.96278771  0.60296822  0.01103542     0.36400
C1888       C  0.99900561  0.62819344  0.95662296     0.37200
N1889       N  0.03108990  0.58388549  0.03929930    -0.43600
N1890       N  0.02971659  0.68864564  0.99548487    -0.44100
N1891       N  0.00660256  0.63434631  0.94568740    -0.41400
N1892       N  0.95513593  0.59832192  0.02205131    -0.42900
H1893       H  0.93708388  0.58990704  0.98831514     0.13300
H1894       H  0.02473527  0.63929316  0.97936583     0.09800
H1895       H  0.00375674  0.59381117  0.01205294     0.10900
H1896       H  0.05972460  0.67984517  0.02222625     0.16700
C1897       C  0.19782912  0.75716769  0.04591699    -0.01500
C1898       C  0.21061199  0.76874582  0.05793770     0.07100
C1899       C  0.20133011  0.75783451  0.07065971    -0.07500
C1900       C  0.17946752  0.73609370  0.07157910     0.04500
C1901       C  0.16598846  0.72507185  0.05957100    -0.14700
C1902       C  0.17573611  0.73568284  0.04682015    -0.08100
C1903       C  0.23306948  0.79268970  0.05747077     0.05400
C1904       C  0.23206568  0.81228566  0.05185012    -0.09200
C1905       C  0.25253146  0.83522536  0.05133084     0.00400
C1906       C  0.27478769  0.83893083  0.05640192     0.00300
C1907       C  0.27567513  0.81938046  0.06225649    -0.12700
C1908       C  0.25512088  0.79646297  0.06285598     0.00800
C1909       C  0.24981732  0.85478269  0.04613799     0.40100
C1910       C  0.25722718  0.77705558  0.06885691     0.36700
C1911       C  0.20722834  0.76677677  0.03250646     0.36400
C1912       C  0.17167446  0.72546763  0.08498580     0.37200
N1913       N  0.24766285  0.87052933  0.04208131    -0.43600
N1914       N  0.25891642  0.76154707  0.07373603    -0.44100
N1915       N  0.16560946  0.71691840  0.09573768    -0.41400
N1916       N  0.21479610  0.77440614  0.02175144    -0.42900
H1917       H  0.16595485  0.72733202  0.03748276     0.13300
H1918       H  0.21109624  0.76650097  0.07994892     0.09800
H1919       H  0.21504983  0.80970011  0.04803931     0.10900
H1920       H  0.29253541  0.82193686  0.06630218     0.16700
C1921       C  0.98727733  0.39077495  0.99021727    -0.01500
C1922       C  0.98825887  0.37341030  0.99854149     0.07100
C1923       C  0.97319693  0.34900054  0.99565998    -0.07500
C1924       C  0.95759847  0.34167364  0.98436495     0.04500
C1925       C  0.95682195  0.35908129  0.97577022    -0.14700
C1926       C  0.97162050  0.38356160  0.97899453    -0.08100
C1927       C  0.00632526  0.38060536  0.00961872     0.05400
C1928       C  0.00001075  0.38280304  0.02304844    -0.09200
C1929       C  0.01723283  0.39119766  0.03354424     0.00400
C1930       C  0.04135413  0.39758478  0.03059136     0.00300
C1931       C  0.04738226  0.39491029  0.01710701    -0.12700
C1932       C  0.03011230  0.38646632  0.00668403     0.00800
C1933       C  0.00963786  0.39351235  0.04711336     0.40100
C1934       C  0.03712806  0.38406283  0.99297992     0.36700
C1935       C  0.00265758  0.41611297  0.99287309     0.36400
C1936       C  0.94329284  0.31624198  0.98169097     0.37200
N1937       N  0.00363629  0.39541225  0.05800141    -0.43600
N1938       N  0.04253218  0.38202014  0.98196515    -0.44100
N1939       N  0.93193886  0.29583350  0.97956443    -0.41400
N1940       N  0.01510671  0.43636123  0.99508215    -0.42900
H1941       H  0.97132821  0.39721571  0.97259690     0.13300
H1942       H  0.97413880  0.33566890  0.00204211     0.09800
H1943       H  0.98167806  0.37834567  0.02527167     0.10900
H1944       H  0.06567965  0.39955931  0.01463998     0.16700
C1945       C  0.10873365  0.53005503  0.05240245    -0.01500
C1946       C  0.11240778  0.54190028  0.06509039     0.07100
C1947       C  0.11426974  0.53075528  0.07702474    -0.07500
C1948       C  0.11231723  0.50803920  0.07651430     0.04500
C1949       C  0.10816606  0.49591376  0.06382003    -0.14700
C1950       C  0.10677140  0.50739868  0.05186869    -0.08100
C1951       C  0.11237510  0.56494533  0.06623038     0.05400
C1952       C  0.09367637  0.56519300  0.07350449    -0.09200
C1953       C  0.09121209  0.58564518  0.07365357     0.00400
C1954       C  0.10769091  0.60645598  0.06627560     0.00300
C1955       C  0.12720458  0.60654230  0.05965914    -0.12700
C1956       C  0.12975305  0.58613082  0.05967186     0.00800
C1957       C  0.07111394  0.58424688  0.08110784     0.40100
C1958       C  0.15024827  0.58729143  0.05282512     0.36700
C1959       C  0.10590357  0.54028631  0.03983753     0.36400
C1960       C  0.11456826  0.49774076  0.08919464     0.37200
N1961       N  0.05498356  0.58298896  0.08712426    -0.43600
N1962       N  0.16663942  0.58820291  0.04730396    -0.44100
N1963       N  0.11643287  0.48955099  0.09937109    -0.41400
N1964       N  0.10376607  0.54850852  0.02974649    -0.42900
H1965       H  0.10354491  0.49842435  0.04204613     0.13300
H1966       H  0.11702023  0.53977523  0.08680543     0.09800
H1967       H  0.08045866  0.54902226  0.07872639     0.10900
H1968       H  0.14034694  0.62248163  0.05423758     0.16700
C1969       C  0.55034959  0.74977057  0.05767724    -0.01500
C1970       C  0.56483636  0.76908103  0.04880782     0.07100
C1971       C  0.57968150  0.76614922  0.03933623    -0.07500
C1972       C  0.58054926  0.74474782  0.03874948     0.04500
C1973       C  0.56690356  0.72587574  0.04808652    -0.14700
C1974       C  0.55161309  0.72862408  0.05730753    -0.08100
C1975       C  0.56550231  0.79269566  0.04972071     0.05400
C1976       C  0.57065266  0.80458662  0.06240107    -0.09200
C1977       C  0.57149393  0.82668893  0.06387309     0.00400
C1978       C  0.56769622  0.83785373  0.05237638     0.00300
C1979       C  0.56285258  0.82611984  0.03963356    -0.12700
C1980       C  0.56155041  0.80373022  0.03824282     0.00800
C1981       C  0.57701406  0.83768002  0.07727318     0.40100
C1982       C  0.55564290  0.79226097  0.02498122     0.36700
C1983       C  0.53377644  0.75104469  0.06718029     0.36400
C1984       C  0.59525200  0.74259469  0.02828519     0.37200
N1985       N  0.58138661  0.84634947  0.08804866    -0.43600
N1986       N  0.55098480  0.78310866  0.01433779    -0.44100
N1987       N  0.60685353  0.74079452  0.01980420    -0.41400
N1988       N  0.52052588  0.75207200  0.07481416    -0.42900
H1989       H  0.54072479  0.71427579  0.06442499     0.13300
H1990       H  0.59091230  0.78078079  0.03245706     0.09800
H1991       H  0.57425569  0.79661264  0.07123415     0.10900
H1992       H  0.55985662  0.83436530  0.03071565     0.16700
C1993       C  0.24314267  0.43632363  0.04012301    -0.01500
C1994       C  0.23060049  0.43509202  0.05223432     0.07100
C1995       C  0.23953902  0.43250575  0.06485328    -0.07500
C1996       C  0.26059747  0.43109352  0.06557214     0.04500
C1997       C  0.27322442  0.43226092  0.05342432    -0.14700
C1998       C  0.26419670  0.43486238  0.04079882    -0.08100
C1999       C  0.20760435  0.43546043  0.05200835     0.05400
C2000       C  0.18762901  0.41700365  0.04522778    -0.09200
C2001       C  0.16514512  0.41561609  0.04567965     0.00400
C2002       C  0.16223031  0.43269177  0.05334335     0.00300
C2003       C  0.18246754  0.45157857  0.05975183    -0.12700
C2004       C  0.20502296  0.45320465  0.05902931     0.00800
C2005       C  0.14537323  0.39605424  0.03851241     0.40100
C2006       C  0.22535568  0.47346918  0.06537574     0.36700
C2007       C  0.23493522  0.43947121  0.02692003     0.36400
C2008       C  0.26810362  0.42742620  0.07887847     0.37200
N2009       N  0.12955928  0.38043814  0.03271438    -0.43600
N2010       N  0.24167128  0.48979503  0.07039149    -0.44100
N2011       N  0.27399177  0.42440929  0.08956041    -0.41400
N2012       N  0.22826843  0.44197715  0.01636086    -0.42900
H2013       H  0.27365651  0.43583860  0.03139590     0.13300
H2014       H  0.22973335  0.43113919  0.07417674     0.09800
H2015       H  0.18950961  0.40332187  0.03979074     0.10900
H2016       H  0.18068308  0.46511756  0.06540929     0.16700
C2017       C  0.42292909  0.52805777  0.06505804    -0.01500
C2018       C  0.43698146  0.53681320  0.05309954     0.07100
C2019       C  0.42872936  0.52362739  0.04090499    -0.07500
C2020       C  0.40702535  0.50166484  0.04056760     0.04500
C2021       C  0.39321188  0.49248364  0.05267589    -0.14700
C2022       C  0.40137215  0.50601963  0.06479403    -0.08100
C2023       C  0.46067233  0.55935057  0.05325915     0.05400
C2024       C  0.47965835  0.56005360  0.06076891    -0.09200
C2025       C  0.50230692  0.58094192  0.06122429     0.00400
C2026       C  0.50626171  0.60173182  0.05399430     0.00300
C2027       C  0.48710184  0.60089439  0.04652460    -0.12700
C2028       C  0.46449845  0.58001565  0.04612295     0.00800
C2029       C  0.52111952  0.58015779  0.06892735     0.40100
C2030       C  0.44534413  0.58036016  0.03855772     0.36700
C2031       C  0.43017275  0.54165251  0.07764689     0.36400
C2032       C  0.40008881  0.48849784  0.02782325     0.37200
N2033       N  0.53610602  0.57938076  0.07511417    -0.43600
N2034       N  0.42997954  0.58064525  0.03250818    -0.44100
N2035       N  0.39461447  0.47798198  0.01759714    -0.41400
N2036       N  0.43608334  0.55274140  0.08766834    -0.42900
H2037       H  0.39088188  0.49935549  0.07412135     0.13300
H2038       H  0.43954813  0.53030672  0.03169083     0.09800
H2039       H  0.47676912  0.54411561  0.06622860     0.10900
H2040       H  0.48971769  0.61665946  0.04098498     0.16700
C2041       C  0.67898792  0.64458171  0.88427154    -0.01500
C2042       C  0.70300415  0.66035601  0.88041903     0.07100
C2043       C  0.72163677  0.65966959  0.88747634    -0.07500
C2044       C  0.71676978  0.64363250  0.89832374     0.04500
C2045       C  0.69265167  0.62755594  0.90222954    -0.14700
C2046       C  0.67396645  0.62815907  0.89499677    -0.08100
C2047       C  0.70949248  0.67834861  0.86933194     0.05400
C2048       C  0.71921286  0.70253148  0.87292354    -0.09200
C2049       C  0.72847421  0.72059354  0.86293147     0.00400
C2050       C  0.72840351  0.71452563  0.84895772     0.00300
C2051       C  0.71764478  0.69009069  0.84537072    -0.12700
C2052       C  0.70820711  0.67206381  0.85541170     0.00800
C2053       C  0.73841590  0.74513135  0.86746979     0.40100
C2054       C  0.69815530  0.64732114  0.85126750     0.36700
C2055       C  0.65939187  0.64570199  0.87773875     0.36400
C2056       C  0.73701447  0.64424823  0.90518424     0.37200
N2057       N  0.74634567  0.76477848  0.87113298    -0.43600
N2058       N  0.69002791  0.62747647  0.84795109    -0.44100
N2059       N  0.75330613  0.64489571  0.91068714    -0.41400
N2060       N  0.64376707  0.64682403  0.87254939    -0.42900
H2061       H  0.65541528  0.61626020  0.89796490     0.13300
H2062       H  0.74014286  0.67192194  0.88453745     0.09800
H2063       H  0.72009219  0.70734041  0.88364945     0.10900
H2064       H  0.71727379  0.68503102  0.83474031     0.16700
C2065       C  0.81549005  0.57562617  0.95624595    -0.01500
C2066       C  0.80301120  0.57460343  0.94414072     0.07100
C2067       C  0.81280486  0.57381583  0.93143774    -0.07500
C2068       C  0.83448728  0.57366217  0.93062070     0.04500
C2069       C  0.84711029  0.57473868  0.94273698    -0.14700
C2070       C  0.83741968  0.57587160  0.95545727    -0.08100
C2071       C  0.77982177  0.57454128  0.94439613     0.05400
C2072       C  0.77913778  0.59435676  0.94987777    -0.09200
C2073       C  0.75804856  0.59574999  0.94937935     0.00400
C2074       C  0.73707714  0.57704103  0.94315549     0.00300
C2075       C  0.73768767  0.55690986  0.93805883    -0.12700
C2076       C  0.75873700  0.55552570  0.93863329     0.00800
C2077       C  0.75886952  0.61696355  0.95494054     0.40100
C2078       C  0.75829710  0.53442782  0.93318729     0.36700
C2079       C  0.80575608  0.57567247  0.96957704     0.36400
C2080       C  0.84350819  0.57297011  0.91717389     0.37200
N2081       N  0.75957177  0.63397533  0.95941220    -0.43600
N2082       N  0.75803151  0.51759117  0.92877807    -0.44100
N2083       N  0.85069004  0.57235698  0.90639293    -0.41400
N2084       N  0.79783588  0.57563572  0.98023498    -0.42900
H2085       H  0.84683628  0.57664260  0.96484168     0.13300
H2086       H  0.80343988  0.57337994  0.92208843     0.09800
H2087       H  0.79534455  0.60908519  0.95426129     0.10900
H2088       H  0.72174315  0.54227990  0.93339854     0.16700
C2089       C  0.60516905  0.62868978  0.99967714    -0.01500
C2090       C  0.63038886  0.63989164  0.99890200     0.07100
C2091       C  0.64453679  0.65792122  0.00831943    -0.07500
C2092       C  0.63382793  0.66461939  0.01865134     0.04500
C2093       C  0.60839287  0.65313481  0.01961778    -0.14700
C2094       C  0.59440869  0.63534444  0.00993290    -0.08100
C2095       C  0.64203774  0.63232624  0.98848053     0.05400
C2096       C  0.64749359  0.64345228  0.97560032    -0.09200
C2097       C  0.65578631  0.63485453  0.96495195     0.00400
C2098       C  0.65880110  0.61475347  0.96718203     0.00300
C2099       C  0.65421287  0.60429023  0.98029293    -0.12700
C2100       C  0.64572547  0.61279279  0.99087072     0.00800
C2101       C  0.66101809  0.64699477  0.95187846     0.40100
C2102       C  0.64007234  0.60068642  0.00395972     0.36700
C2103       C  0.59004236  0.61002936  0.99012785     0.36400
C2104       C  0.64946770  0.68292971  0.02821597     0.37200
N2105       N  0.66523331  0.65661794  0.94136727    -0.43600
N2106       N  0.63546546  0.59095835  0.01444313    -0.44100
N2107       N  0.66203044  0.69758336  0.03589011    -0.41400
N2108       N  0.57811473  0.59508810  0.98242504    -0.42900
H2109       H  0.57493508  0.62627566  0.01046366     0.13300
H2110       H  0.66397551  0.66651463  0.00770721     0.09800
H2111       H  0.64464714  0.65849830  0.97377023     0.10900
H2112       H  0.65643111  0.58888015  0.98217384     0.16700
C2113       C  0.34459152  0.29478101  0.86306184    -0.01500
C2114       C  0.33917822  0.29532782  0.87701320     0.07100
C2115       C  0.31574239  0.28923393  0.88076762    -0.07500
C2116       C  0.29751007  0.28185688  0.87096141     0.04500
C2117       C  0.30262247  0.28040202  0.85697897    -0.14700
C2118       C  0.32636665  0.28732394  0.85320207    -0.08100
C2119       C  0.35762159  0.30236612  0.88791660     0.05400
C2120       C  0.37688215  0.32601689  0.88826718    -0.09200
C2121       C  0.39396034  0.33376281  0.89880281     0.00400
C2122       C  0.39202851  0.31751936  0.90922714     0.00300
C2123       C  0.37266867  0.29381564  0.90882075    -0.12700
C2124       C  0.35553465  0.28617537  0.89831961     0.00800
C2125       C  0.41246044  0.35876429  0.89893229     0.40100
C2126       C  0.33606184  0.26157855  0.89836792     0.36700
C2127       C  0.36849583  0.30100186  0.85866664     0.36400
C2128       C  0.27381538  0.27584524  0.87567744     0.37200
N2129       N  0.42709205  0.37887673  0.89898565    -0.43600
N2130       N  0.32041091  0.24189126  0.89842469    -0.44100
N2131       N  0.25486190  0.27107005  0.87949658    -0.41400
N2132       N  0.38764520  0.30602197  0.85510162    -0.42900
H2133       H  0.33063950  0.28633862  0.84255949     0.13300
H2134       H  0.31166469  0.29012458  0.89146852     0.09800
H2135       H  0.37823627  0.33862326  0.88043548     0.10900
H2136       H  0.37091307  0.28114820  0.91671447     0.16700
C2137       C  0.43781950  0.19635316  0.95341760    -0.01500
C2138       C  0.45632490  0.21566028  0.94604636     0.07100
C2139       C  0.47353984  0.21213794  0.93922347    -0.07500
C2140       C  0.47208842  0.18962714  0.93921951     0.04500
C2141       C  0.45300717  0.16995578  0.94616553    -0.14700
C2142       C  0.43635051  0.17382609  0.95345858    -0.08100
C2143       C  0.45743246  0.23933277  0.94493818     0.05400
C2144       C  0.46137554  0.25324004  0.95675358    -0.09200
C2145       C  0.46074972  0.27474205  0.95626013     0.00400
C2146       C  0.45564525  0.28249831  0.94375800     0.00300
C2147       C  0.45300242  0.26917321  0.93181364    -0.12700
C2148       C  0.45392356  0.24784220  0.93230134     0.00800
C2149       C  0.46590509  0.28863354  0.96868924     0.40100
C2150       C  0.45023183  0.23447796  0.91978079     0.36700
C2151       C  0.41949071  0.19893784  0.96050154     0.36400
C2152       C  0.49058724  0.18741867  0.93207776     0.37200
N2153       N  0.47026315  0.29982633  0.97864417    -0.43600
N2154       N  0.44737652  0.22378391  0.90975107    -0.44100
N2155       N  0.50545457  0.18568707  0.92637311    -0.41400
N2156       N  0.40481836  0.20105105  0.96616694    -0.42900
H2157       H  0.42163547  0.15901753  0.95885610     0.13300
H2158       H  0.48803075  0.22701650  0.93373117     0.09800
H2159       H  0.46476796  0.24714071  0.96642626     0.10900
H2160       H  0.44937784  0.27496506  0.92210519     0.16700
C2161       C  0.34804651  0.37052300  0.00317782    -0.01500
C2162       C  0.36995564  0.37055768  0.00446245     0.07100
C2163       C  0.38334693  0.37934925  0.01655583    -0.07500
C2164       C  0.37570714  0.38873245  0.02710804     0.04500
C2165       C  0.35440685  0.39000161  0.02553084    -0.14700
C2166       C  0.34054893  0.38030317  0.01360858    -0.08100
C2167       C  0.38013167  0.36310668  0.99300988     0.05400
C2168       C  0.38574925  0.37594602  0.98065485    -0.09200
C2169       C  0.39715605  0.37100292  0.96994675     0.00400
C2170       C  0.40357402  0.35300030  0.97155537     0.00300
C2171       C  0.39727813  0.33969304  0.98383221    -0.12700
C2172       C  0.38564101  0.34455389  0.99448028     0.00800
C2173       C  0.40183822  0.38471599  0.95746306     0.40100
C2174       C  0.37921896  0.33008540  0.00675765     0.36700
C2175       C  0.33282568  0.36025700  0.99132329     0.36400
C2176       C  0.39018174  0.39679721  0.03938552     0.37200
N2177       N  0.40544376  0.39570416  0.94746634    -0.43600
N2178       N  0.37397835  0.31850795  0.01660707    -0.44100
N2179       N  0.40173825  0.40308961  0.04924492    -0.41400
N2180       N  0.32058668  0.35190797  0.98184668    -0.42900
H2181       H  0.32391664  0.38059644  0.01232135     0.13300
H2182       H  0.40014529  0.37929805  0.01764737     0.09800
H2183       H  0.38154817  0.39023406  0.97946032     0.10900
H2184       H  0.40165527  0.32557129  0.98520654     0.16700
C2185       C  0.54744272  0.42775487  0.94752833    -0.01500
C2186       C  0.55277727  0.44367706  0.93643674     0.07100
C2187       C  0.53603649  0.43765408  0.92585347    -0.07500
C2188       C  0.51374174  0.41642983  0.92637021     0.04500
C2189       C  0.50784060  0.40070396  0.93775542    -0.14700
C2190       C  0.52511529  0.40652294  0.94813346    -0.08100
C2191       C  0.57481819  0.46762988  0.93620032     0.05400
C2192       C  0.59347748  0.47214539  0.92706213    -0.09200
C2193       C  0.61426006  0.49489914  0.92642671     0.00400
C2194       C  0.61638857  0.51363700  0.93499426     0.00300
C2195       C  0.59750807  0.50890783  0.94407644    -0.12700
C2196       C  0.57687843  0.48623411  0.94470586     0.00800
C2197       C  0.63322231  0.49820942  0.91716970     0.40100
C2198       C  0.55777401  0.48253556  0.95397364     0.36700
C2199       C  0.56464972  0.43293552  0.95838316     0.36400
C2200       C  0.49741060  0.41161012  0.91507539     0.37200
N2201       N  0.64842790  0.50078838  0.90977175    -0.43600
N2202       N  0.54239945  0.47943999  0.96137662    -0.44100
N2203       N  0.48446777  0.40788094  0.90596188    -0.41400
N2204       N  0.57853293  0.43712733  0.96703463    -0.42900
H2205       H  0.52112251  0.39461295  0.95683606     0.13300
H2206       H  0.54020106  0.44992921  0.91730766     0.09800
H2207       H  0.59183384  0.45780776  0.92048466     0.10900
H2208       H  0.59872146  0.52304173  0.95067343     0.16700
C2209       C  0.65751028  0.71144700  0.36188722    -0.01500
C2210       C  0.66450044  0.71473719  0.37577605     0.07100
C2211       C  0.68900979  0.72571937  0.37902580    -0.07500
C2212       C  0.70659963  0.73430868  0.36874622     0.04500
C2213       C  0.69978476  0.73233020  0.35478244    -0.14700
C2214       C  0.67509453  0.72029223  0.35154834    -0.08100
C2215       C  0.64675763  0.70744504  0.38715554     0.05400
C2216       C  0.63157364  0.68298608  0.39001676    -0.09200
C2217       C  0.61584421  0.67556146  0.40127966     0.00400
C2218       C  0.61488506  0.69286957  0.40983520     0.00300
C2219       C  0.62998160  0.71735147  0.40680298    -0.12700
C2220       C  0.64583976  0.72470403  0.39565506     0.00800
C2221       C  0.60187612  0.65015502  0.40413708     0.40100
C2222       C  0.66102566  0.75011403  0.39313156     0.36700
C2223       C  0.63246600  0.69984785  0.35801725     0.36400
C2224       C  0.73142486  0.74489255  0.37293107     0.37200
N2225       N  0.59085089  0.62978407  0.40645674    -0.43600
N2226       N  0.67323399  0.77048290  0.39115101    -0.44100
N2227       N  0.75129231  0.75324100  0.37632537    -0.41400
N2228       N  0.61239663  0.69050131  0.35489226    -0.42900
H2229       H  0.66946094  0.71837404  0.34092721     0.13300
H2230       H  0.69441900  0.72777936  0.38970200     0.09800
H2231       H  0.63250239  0.66966520  0.38363269     0.10900
H2232       H  0.62950010  0.73089420  0.41319813     0.16700
C2233       C  0.66395785  0.68695088  0.13221712    -0.01500
C2234       C  0.66700246  0.69496252  0.11854912     0.07100
C2235       C  0.68922862  0.71403143  0.11433108    -0.07500
C2236       C  0.70807329  0.72603861  0.12365097     0.04500
C2237       C  0.70479969  0.71893467  0.13758610    -0.14700
C2238       C  0.68286657  0.69885208  0.14160727    -0.08100
C2239       C  0.64671664  0.68594112  0.10876554     0.05400
C2240       C  0.63537779  0.69952825  0.10697068    -0.09200
C2241       C  0.61866680  0.69426060  0.09645291     0.00400
C2242       C  0.61298052  0.67486856  0.08743433     0.00300
C2243       C  0.62364828  0.66060604  0.08969551    -0.12700
C2244       C  0.64045175  0.66603297  0.10023803     0.00800
C2245       C  0.60879093  0.70996639  0.09483185     0.40100
C2246       C  0.65169524  0.65154215  0.10179387     0.36700
C2247       C  0.64130170  0.66728652  0.13691283     0.36400
C2248       C  0.73032086  0.74584661  0.11858691     0.37200
N2249       N  0.60103532  0.72269689  0.09357243    -0.43600
N2250       N  0.66065893  0.63987275  0.10302057    -0.44100
N2251       N  0.74811260  0.76175219  0.11451237    -0.41400
N2252       N  0.62312557  0.65151552  0.14066061    -0.42900
H2253       H  0.68007675  0.69306288  0.15221838     0.13300
H2254       H  0.69154895  0.72010811  0.10377245     0.09800
H2255       H  0.64035887  0.71495232  0.11352104     0.10900
H2256       H  0.61942917  0.64559524  0.08296382     0.16700
C2257       C  0.76336732  0.75570495  0.23183422    -0.01500
C2258       C  0.74083163  0.74724778  0.23817362     0.07100
C2259       C  0.72010389  0.73836658  0.23004450    -0.07500
C2260       C  0.72172244  0.73880290  0.21569232     0.04500
C2261       C  0.74452093  0.74847725  0.20930238    -0.14700
C2262       C  0.76506138  0.75636266  0.21754941    -0.08100
C2263       C  0.73914846  0.74983819  0.25316441     0.05400
C2264       C  0.74882082  0.77306381  0.25850272    -0.09200
C2265       C  0.74972440  0.77694617  0.27262454     0.00400
C2266       C  0.74074343  0.75721289  0.28177253     0.00300
C2267       C  0.73007052  0.73381790  0.27636077    -0.12700
C2268       C  0.72929549  0.73002486  0.26215462     0.00800
C2269       C  0.75987216  0.80141882  0.27734629     0.40100
C2270       C  0.71928427  0.70582584  0.25704323     0.36700
C2271       C  0.78503450  0.76398240  0.23983421     0.36400
C2272       C  0.69985829  0.73030062  0.20786590     0.37200
N2273       N  0.76801591  0.82103789  0.28110475    -0.43600
N2274       N  0.71129531  0.68644832  0.25290865    -0.44100
N2275       N  0.68233542  0.72347662  0.20158556    -0.41400
N2276       N  0.80232731  0.77052350  0.24629202    -0.42900
H2277       H  0.78261974  0.76341027  0.21283384     0.13300
H2278       H  0.70275000  0.73187391  0.23491976     0.09800
H2279       H  0.75610648  0.78829988  0.25155913     0.10900
H2280       H  0.72306984  0.71851889  0.28323269     0.16700
C2281       C  0.76886325  0.91121727  0.16017367    -0.01500
C2282       C  0.75714056  0.89294549  0.17008246     0.07100
C2283       C  0.74592539  0.89708227  0.18125537    -0.07500
C2284       C  0.74560817  0.91862077  0.18248058     0.04500
C2285       C  0.75719013  0.93686063  0.17249759    -0.14700
C2286       C  0.76898679  0.93296161  0.16152918    -0.08100
C2287       C  0.75664158  0.86956750  0.16912421     0.05400
C2288       C  0.77844976  0.86950152  0.16857094    -0.09200
C2289       C  0.77887076  0.84794665  0.16792068     0.00400
C2290       C  0.75702576  0.82569145  0.16792350     0.00300
C2291       C  0.73519959  0.82582776  0.16854335    -0.12700
C2292       C  0.73482988  0.84741183  0.16912967     0.00800
C2293       C  0.80205607  0.84941311  0.16755732     0.40100
C2294       C  0.71180081  0.84631327  0.16955335     0.36700
C2295       C  0.78014083  0.90782703  0.14824658     0.36400
C2296       C  0.73358950  0.92151529  0.19421887     0.37200
N2297       N  0.82067483  0.85065913  0.16728467    -0.43600
N2298       N  0.69336031  0.84544300  0.16997802    -0.44100
N2299       N  0.72388659  0.92374404  0.20361880    -0.41400
N2300       N  0.78918854  0.90520466  0.13866102    -0.42900
H2301       H  0.77789188  0.94674657  0.15377796     0.13300
H2302       H  0.73734375  0.88336365  0.18907642     0.09800
H2303       H  0.79529094  0.88643154  0.16881759     0.10900
H2304       H  0.71826886  0.80899203  0.16854730     0.16700
C2305       C  0.63759493  0.96345107  0.10805679    -0.01500
C2306       C  0.65257937  0.95433171  0.11207383     0.07100
C2307       C  0.65181570  0.93528059  0.10465540    -0.07500
C2308       C  0.63685590  0.92562839  0.09318529     0.04500
C2309       C  0.62205834  0.93499123  0.08895343    -0.14700
C2310       C  0.62238276  0.95365716  0.09665537    -0.08100
C2311       C  0.67042962  0.96537623  0.12336501     0.05400
C2312       C  0.66269896  0.96248514  0.13705179    -0.09200
C2313       C  0.67940341  0.97147077  0.14788121     0.00400
C2314       C  0.70442492  0.98351832  0.14503464     0.00300
C2315       C  0.71189965  0.98710570  0.13126346    -0.12700
C2316       C  0.69525746  0.97822968  0.12052728     0.00800
C2317       C  0.67024803  0.96757872  0.16172023     0.40100
C2318       C  0.70408118  0.98253924  0.10661038     0.36700
C2319       C  0.63837680  0.98354011  0.11512866     0.36400
C2320       C  0.63689232  0.90590944  0.08612357     0.37200
N2321       N  0.66280256  0.96447014  0.17279083    -0.43600
N2322       N  0.71106368  0.98596722  0.09543989    -0.44100
N2323       N  0.63697057  0.89013027  0.08046730    -0.41400
N2324       N  0.63918813  0.99972270  0.12081136    -0.42900
H2325       H  0.61116434  0.96104497  0.09356881     0.13300
H2326       H  0.66326803  0.92816087  0.10774658     0.09800
H2327       H  0.64358578  0.95277425  0.13927636     0.10900
H2328       H  0.73093119  0.99656184  0.12880766     0.16700
C2329       C  0.74473645  0.86354594  0.31653346    -0.01500
C2330       C  0.75654464  0.87975973  0.32738929     0.07100
C2331       C  0.76593405  0.87264260  0.33825174    -0.07500
C2332       C  0.76401072  0.84993135  0.33835003     0.04500
C2333       C  0.75280910  0.83396693  0.32729073    -0.14700
C2334       C  0.74304807  0.84096828  0.31655061    -0.08100
C2335       C  0.75804459  0.90361920  0.32798154     0.05400
C2336       C  0.73664751  0.90446559  0.32815135    -0.09200
C2337       C  0.73697917  0.92637353  0.32863937     0.00400
C2338       C  0.75919538  0.94821558  0.32931297     0.00300
C2339       C  0.78065490  0.94732905  0.32932677    -0.22300
C2340       C  0.78025267  0.92533532  0.32854457     0.00800
C2341       C  0.71412636  0.92565122  0.32855871     0.40100
C2342       C  0.80284463  0.92557184  0.32785379     0.36700
C2343       C  0.73440596  0.86973779  0.30518645     0.36400
C2344       C  0.77244213  0.84301581  0.35027498     0.37200
N2345       N  0.69578102  0.92500618  0.32842659    -0.43600
N2346       N  0.82097475  0.92581771  0.32724969    -0.44100
N2347       N  0.77894481  0.83738588  0.35990999    -0.41400
N2348       N  0.72595777  0.87464814  0.29616240    -0.42900
H2349       H  0.73430875  0.82887255  0.30801977     0.13300
H2350       H  0.77432392  0.88469961  0.34684042     0.09800
H2351       H  0.71951704  0.88782811  0.32789413     0.10900
H2352       H  0.79783448  0.96387388  0.32969824     0.16700
C2353       C  0.62886307  0.94908023  0.38633381    -0.01500
C2354       C  0.65167409  0.96885692  0.38942406     0.07100
C2355       C  0.65641061  0.97815767  0.40275900    -0.07500
C2356       C  0.63936149  0.96739908  0.41317066     0.04500
C2357       C  0.61670485  0.94708243  0.41024966    -0.14700
C2358       C  0.61154061  0.93847415  0.39670947    -0.08100
C2359       C  0.67155508  0.97900601  0.37926694     0.05400
C2360       C  0.66929645  0.98945606  0.36713321    -0.09200
C2361       C  0.68767571  0.99861429  0.35727321     0.00400
C2362       C  0.70903656  0.99781175  0.35968296     0.00300
C2363       C  0.71129783  0.98775463  0.37198619    -0.12700
C2364       C  0.69278938  0.97816809  0.38162791     0.00800
C2365       C  0.68380649  0.00824039  0.34477079     0.40100
C2366       C  0.69560016  0.96653423  0.39358907     0.36700
C2367       C  0.62328232  0.93873095  0.37276782     0.36400
C2368       C  0.64576469  0.97769418  0.42672739     0.37200
N2369       N  0.68054942  0.01580292  0.33473455    -0.43600
N2370       N  0.69781541  0.95715095  0.40314959    -0.44100
N2371       N  0.65092814  0.98589611  0.43759909    -0.41400
N2372       N  0.61897581  0.93058904  0.36185981    -0.42900
H2373       H  0.59424192  0.92295127  0.39430391     0.13300
H2374       H  0.67384347  0.99356136  0.40511538     0.09800
H2375       H  0.65301228  0.99020012  0.36530615     0.10900
H2376       H  0.72733799  0.98662107  0.37394940     0.16700
C2377       C  0.73383189  0.00882028  0.26834008    -0.01500
C2378       C  0.75481328  0.01941034  0.26020917     0.07100
C2379       C  0.77733623  0.03241066  0.26656832    -0.07500
C2380       C  0.77936376  0.03368225  0.28083394     0.04500
C2381       C  0.75845436  0.02196673  0.28903823    -0.14700
C2382       C  0.73579492  0.01030211  0.28265146    -0.08100
C2383       C  0.75397411  0.01594440  0.24514602     0.05400
C2384       C  0.74290054  0.02538087  0.23678282    -0.09200
C2385       C  0.74272964  0.02314092  0.22246679     0.00400
C2386       C  0.75370029  0.01106909  0.21632614     0.00300
C2387       C  0.76454330  0.00148747  0.22482217    -0.12700
C2388       C  0.76484248  0.00387173  0.23903821     0.00800
C2389       C  0.73177904  0.03398358  0.21444195     0.40100
C2390       C  0.77637698  0.99364806  0.24713561     0.36700
C2391       C  0.71022747  0.99524752  0.26228152     0.36400
C2392       C  0.80314562  0.04700566  0.28672682     0.37200
N2393       N  0.72304441  0.04283062  0.20809406    -0.43600
N2394       N  0.78576890  0.98558812  0.25358635    -0.44100
N2395       N  0.82217415  0.05763061  0.29148311    -0.41400
N2396       N  0.69129563  0.98437748  0.25743756    -0.42900
H2397       H  0.71961378  0.00133289  0.28883516     0.13300
H2398       H  0.79348146  0.04101043  0.26032317     0.09800
H2399       H  0.73475067  0.03489990  0.24145714     0.10900
H2400       H  0.77297658  0.99207491  0.22036447     0.16700
C2401       C  0.89805251  0.16622587  0.34477613    -0.01500
C2402       C  0.89197443  0.14205651  0.34304591     0.07100
C2403       C  0.91021295  0.13681305  0.33997708    -0.07500
C2404       C  0.93413365  0.15506714  0.33847721     0.04500
C2405       C  0.94016308  0.17937903  0.33963845    -0.14700
C2406       C  0.92193791  0.18462074  0.34295063    -0.08100
C2407       C  0.86670347  0.12184039  0.34357987     0.05400
C2408       C  0.84996617  0.12121684  0.33408384    -0.09200
C2409       C  0.82728977  0.10062338  0.33259892     0.00400
C2410       C  0.82114036  0.08002635  0.34066421     0.00300
C2411       C  0.83742850  0.08120026  0.35067186    -0.12700
C2412       C  0.85994745  0.10188633  0.35224552     0.00800
C2413       C  0.81154078  0.10060050  0.32201357     0.40100
C2414       C  0.87608015  0.10210966  0.36264009     0.36700
C2415       C  0.88021114  0.17255257  0.34863002     0.36400
C2416       C  0.95181312  0.14814453  0.33533122     0.37200
N2417       N  0.79891122  0.10052108  0.31351884    -0.43600
N2418       N  0.88914297  0.10243437  0.37092539    -0.44100
N2419       N  0.96591158  0.14246804  0.33288446    -0.41400
N2420       N  0.86595860  0.17765968  0.35177368    -0.42900
H2421       H  0.92633454  0.20315744  0.34410621     0.13300
H2422       H  0.90563479  0.11827136  0.33849820     0.09800
H2423       H  0.85509802  0.13640417  0.32730694     0.10900
H2424       H  0.83281370  0.06567140  0.35706456     0.16700
C2425       C  0.03902707  0.32783702  0.36704363    -0.01500
C2426       C  0.03762228  0.32189787  0.38102481     0.07100
C2427       C  0.02689628  0.29775994  0.38493582    -0.07500
C2428       C  0.01853129  0.27951625  0.37510008     0.04500
C2429       C  0.02128322  0.28545391  0.36097125    -0.14700
C2430       C  0.03090975  0.30966354  0.35714850    -0.08100
C2431       C  0.04816660  0.34057528  0.39176234     0.05400
C2432       C  0.03574916  0.35221999  0.39596598    -0.09200
C2433       C  0.04486717  0.36936555  0.40645697     0.00400
C2434       C  0.06682306  0.37501306  0.41290012     0.00300
C2435       C  0.07916242  0.36325073  0.40865335    -0.12700
C2436       C  0.07010702  0.34626440  0.39811144     0.00800
C2437       C  0.03079284  0.38003138  0.41079179     0.40100
C2438       C  0.08382636  0.33520601  0.39378279     0.36700
C2439       C  0.04962425  0.35251400  0.36263250     0.36400
C2440       C  0.00726262  0.25500515  0.37991576     0.37200
N2441       N  0.01943072  0.38847328  0.41429608    -0.43600
N2442       N  0.09486834  0.32642074  0.39027284    -0.44100
N2443       N  0.99816262  0.23542048  0.38388104    -0.41400
N2444       N  0.05811515  0.37230631  0.35911790    -0.42900
H2445       H  0.03288830  0.31455357  0.34639350     0.13300
H2446       H  0.02541629  0.29322035  0.39573824     0.09800
H2447       H  0.01874725  0.34764435  0.39115380     0.10900
H2448       H  0.09612966  0.36761203  0.41343310     0.16700
C2449       C  0.86396102  0.08938542  0.16984163    -0.01500
C2450       C  0.86432101  0.10982498  0.16426073     0.07100
C2451       C  0.84270483  0.10792242  0.15967773    -0.07500
C2452       C  0.82082695  0.08627637  0.16092393     0.04500
C2453       C  0.82037299  0.06590503  0.16678079    -0.14700
C2454       C  0.84218442  0.06771204  0.17096296    -0.08100
C2455       C  0.88703923  0.13339034  0.16356709     0.05400
C2456       C  0.90649157  0.13528026  0.15598609    -0.09200
C2457       C  0.92908004  0.15620357  0.15643525     0.00400
C2458       C  0.93244195  0.17591169  0.16451958     0.00300
C2459       C  0.91255828  0.17448230  0.17142867    -0.12700
C2460       C  0.89004484  0.15347309  0.17106339     0.00800
C2461       C  0.94838563  0.15681313  0.14852233     0.40100
C2462       C  0.87066733  0.15257867  0.17903961     0.36700
C2463       C  0.88557860  0.09049809  0.17504183     0.36400
C2464       C  0.79926778  0.08547499  0.15592952     0.37200
N2465       N  0.96379359  0.15722488  0.14215049    -0.43600
N2466       N  0.85512991  0.15191310  0.18539956    -0.44100
N2467       N  0.78198321  0.08481923  0.15190948    -0.41400
N2468       N  0.90297175  0.09153385  0.17918429    -0.42900
H2469       H  0.84219072  0.05231568  0.17551409     0.13300
H2470       H  0.84292528  0.12349116  0.15521117     0.09800
H2471       H  0.90414779  0.12006108  0.14998098     0.10900
H2472       H  0.91482173  0.18943842  0.17765780     0.16700
C2473       C  0.02622554  0.29608394  0.11903939    -0.01500
C2474       C  0.03635286  0.32058390  0.12240539     0.07100
C2475       C  0.03632792  0.32711552  0.13609975    -0.07500
C2476       C  0.02708868  0.30972273  0.14649309     0.04500
C2477       C  0.01744251  0.28513170  0.14320873    -0.14700
C2478       C  0.01703643  0.27865114  0.12940411    -0.08100
C2479       C  0.04724023  0.33968200  0.11179312     0.05400
C2480       C  0.03604171  0.35301792  0.10859093    -0.09200
C2481       C  0.04538641  0.37076915  0.09839426     0.00400
C2482       C  0.06644083  0.37544869  0.09119290     0.00300
C2483       C  0.07773058  0.36218566  0.09454090    -0.12700
C2484       C  0.06848612  0.34462719  0.10482741     0.00800
C2485       C  0.03243909  0.38317894  0.09522516     0.40100
C2486       C  0.08140963  0.33231549  0.10831335     0.36700
C2487       C  0.02487046  0.28847114  0.10498712     0.36400
C2488       C  0.02883907  0.31783533  0.16046048     0.37200
N2489       N  0.02199800  0.39306338  0.09268769    -0.43600
N2490       N  0.09176105  0.32246746  0.11115803    -0.44100
N2491       N  0.03028823  0.32429274  0.17166912    -0.41400
N2492       N  0.02385253  0.28253825  0.09369744    -0.42900
H2493       H  0.00961567  0.25990376  0.12668319     0.13300
H2494       H  0.04407794  0.34595620  0.13870723     0.09800
H2495       H  0.01971370  0.34926408  0.11394701     0.10900
H2496       H  0.09403751  0.36575591  0.08923235     0.16700
C2497       C  0.97720699  0.21807472  0.23726122    -0.01500
C2498       C  0.99223091  0.23939081  0.24455967     0.07100
C2499       C  0.00588670  0.26083474  0.23719715    -0.07500
C2500       C  0.00550187  0.26109906  0.22282289     0.04500
C2501       C  0.99195459  0.23937135  0.21553463    -0.14700
C2502       C  0.97746707  0.21816419  0.22291911    -0.08100
C2503       C  0.99515237  0.23924336  0.25972828     0.05400
C2504       C  0.00251049  0.22385240  0.26535770    -0.09200
C2505       C  0.00553106  0.22289231  0.27950665     0.00400
C2506       C  0.00135111  0.23779232  0.28844594     0.00300
C2507       C  0.99448032  0.25358488  0.28275994    -0.12700
C2508       C  0.99133678  0.25439086  0.26856993     0.00800
C2509       C  0.01338167  0.20671361  0.28441357     0.40100
C2510       C  0.98364064  0.27048836  0.26335702     0.36700
C2511       C  0.96127757  0.19587706  0.24425250     0.36400
C2512       C  0.01996531  0.28373728  0.21589534     0.37200
N2513       N  0.01968384  0.19374255  0.28830897    -0.43600
N2514       N  0.97757551  0.28343552  0.25910949    -0.44100
N2515       N  0.03143012  0.30195422  0.21038208    -0.41400
N2516       N  0.94844269  0.17810061  0.24983950    -0.42900
H2517       H  0.96646363  0.20147408  0.21746001     0.13300
H2518       H  0.01745575  0.27733194  0.24268631     0.09800
H2519       H  0.00606081  0.21257196  0.25861554     0.10900
H2520       H  0.99122810  0.26515402  0.28942728     0.16700
C2521       C  0.08494451  0.21094554  0.17269951    -0.01500
C2522       C  0.10729014  0.23239794  0.17307910     0.07100
C2523       C  0.10792168  0.25446744  0.17375187    -0.07500
C2524       C  0.08663293  0.25545592  0.17420662     0.04500
C2525       C  0.06408298  0.23390662  0.17397903    -0.14700
C2526       C  0.06361848  0.21183600  0.17318623    -0.08100
C2527       C  0.13027424  0.23227509  0.17249589     0.05400
C2528       C  0.14422675  0.24046177  0.16057723    -0.09200
C2529       C  0.16621518  0.24093403  0.15960988     0.00400
C2530       C  0.17465069  0.23316972  0.17082258     0.00300
C2531       C  0.16044528  0.22481704  0.18272747    -0.12700
C2532       C  0.13848702  0.22442407  0.18365582     0.00800
C2533       C  0.17947734  0.24927968  0.14693116     0.40100
C2534       C  0.12498725  0.21656309  0.19628064     0.36700
C2535       C  0.08351535  0.18788865  0.17143265     0.36400
C2536       C  0.08866328  0.27886794  0.17452254     0.37200
N2537       N  0.19007980  0.25595423  0.13676194    -0.43600
N2538       N  0.11411832  0.21029577  0.20638152    -0.44100
N2539       N  0.09038112  0.29766829  0.17474288    -0.41400
N2540       N  0.08243650  0.16944378  0.17038465    -0.42900
H2541       H  0.04653495  0.19516858  0.17287949     0.13300
H2542       H  0.12515909  0.27099054  0.17389048     0.09800
H2543       H  0.13784020  0.24645404  0.15198121     0.10900
H2544       H  0.16670377  0.21902394  0.19146594     0.16700
C2545       C  0.29158739  0.32970349  0.13196166    -0.01500
C2546       C  0.29382885  0.32283032  0.11857738     0.07100
C2547       C  0.28802976  0.29904696  0.11611429    -0.07500
C2548       C  0.27948385  0.28198660  0.12667987     0.04500
C2549       C  0.27711233  0.28879252  0.14012824    -0.14700
C2550       C  0.28365590  0.31283880  0.14262100    -0.08100
C2551       C  0.30135928  0.34004529  0.10695345     0.05400
C2552       C  0.32463215  0.36009651  0.10685659    -0.09200
C2553       C  0.33199417  0.37735157  0.09641726     0.00400
C2554       C  0.31593034  0.37448892  0.08567877     0.00300
C2555       C  0.29277715  0.35411367  0.08570450    -0.12700
C2556       C  0.28534987  0.33710765  0.09625624     0.00800
C2557       C  0.35613507  0.39764384  0.09701175     0.40100
C2558       C  0.26083842  0.31741762  0.09624406     0.36700
C2559       C  0.29577364  0.35354295  0.13477634     0.36400
C2560       C  0.27304028  0.25763914  0.12331621     0.37200
N2561       N  0.37546558  0.41393999  0.09752988    -0.43600
N2562       N  0.24115323  0.30172664  0.09628280    -0.44100
N2563       N  0.26770887  0.23811392  0.12051308    -0.41400
N2564       N  0.29892414  0.37261125  0.13690807    -0.42900
H2565       H  0.28149634  0.31826149  0.15279882     0.13300
H2566       H  0.28974103  0.29370337  0.10582381     0.09800
H2567       H  0.33699981  0.36236987  0.11506384     0.10900
H2568       H  0.28015287  0.35172810  0.07763161     0.16700
C2569       C  0.15842773  0.24630724  0.33997378    -0.01500
C2570       C  0.13888298  0.23164327  0.33136297     0.07100
C2571       C  0.14113827  0.21617664  0.32210346    -0.07500
C2572       C  0.16261013  0.21550606  0.32113193     0.04500
C2573       C  0.18258150  0.23092313  0.32940631    -0.14700
C2574       C  0.17996811  0.24591280  0.33890244    -0.08100
C2575       C  0.11615080  0.23254865  0.33172958     0.05400
C2576       C  0.11679602  0.25410847  0.32840797    -0.09200
C2577       C  0.09584232  0.25578858  0.32860730     0.00400
C2578       C  0.07350932  0.23549411  0.33222225     0.00300
C2579       C  0.07302158  0.21396406  0.33560550    -0.12700
C2580       C  0.09398800  0.21232645  0.33531639     0.00800
C2581       C  0.09799664  0.27857768  0.32499238     0.40100
C2582       C  0.09238527  0.18976770  0.33888254     0.36700
C2583       C  0.15670633  0.26169640  0.35013370     0.36400
C2584       C  0.16355990  0.19905480  0.31142813     0.37200
N2585       N  0.09979591  0.29686132  0.32206553    -0.43600
N2586       N  0.09119604  0.17170057  0.34166635    -0.44100
N2587       N  0.16419886  0.18575737  0.30368345    -0.41400
N2588       N  0.15531481  0.27399743  0.35829326    -0.42900
H2589       H  0.19491277  0.25762256  0.34547329     0.13300
H2590       H  0.12612794  0.20478486  0.31548502     0.09800
H2591       H  0.13378382  0.26968068  0.32555028     0.10900
H2592       H  0.05613619  0.19819049  0.33836804     0.16700
C2593       C  0.29516565  0.33227308  0.36161476    -0.01500
C2594       C  0.30607346  0.32930652  0.37344447     0.07100
C2595       C  0.30913809  0.30921635  0.37440186    -0.07500
C2596       C  0.30111602  0.29194613  0.36393492     0.04500
C2597       C  0.28954866  0.29452486  0.35224148    -0.14700
C2598       C  0.28724553  0.31510383  0.35112675    -0.08100
C2599       C  0.31329104  0.34634960  0.38517690     0.05400
C2600       C  0.30109002  0.33822133  0.39769254    -0.09200
C2601       C  0.30613357  0.35399670  0.40874455     0.00400
C2602       C  0.32368196  0.37863395  0.40732699     0.00300
C2603       C  0.33638226  0.38646856  0.39489786    -0.12700
C2604       C  0.33150998  0.37059448  0.38394920     0.00800
C2605       C  0.29265591  0.34432039  0.42125177     0.40100
C2606       C  0.34566658  0.37952982  0.37160801     0.36700
C2607       C  0.29073924  0.35212599  0.36034782     0.36400
C2608       C  0.30521290  0.27193161  0.36543424     0.37200
N2609       N  0.28184883  0.33645193  0.43126188    -0.43600
N2610       N  0.35703792  0.38671272  0.36172366    -0.44100
N2611       N  0.30858998  0.25593984  0.36661143    -0.41400
N2612       N  0.28726013  0.36808299  0.35939567    -0.42900
H2613       H  0.27824310  0.31730278  0.34230347     0.13300
H2614       H  0.31766289  0.30693491  0.38343012     0.09800
H2615       H  0.28721387  0.31953021  0.39873595     0.10900
H2616       H  0.35024687  0.40512439  0.39369165     0.16700
C2617       C  0.24886099  0.25127947  0.25985555    -0.01500
C2618       C  0.27204141  0.26124714  0.25412091     0.07100
C2619       C  0.29194402  0.26848289  0.26275058    -0.07500
C2620       C  0.28900408  0.26583550  0.27701239     0.04500
C2621       C  0.26568676  0.25566193  0.28280759    -0.14700
C2622       C  0.24586888  0.24855984  0.27403700    -0.08100
C2623       C  0.27531319  0.26345122  0.23906648     0.05400
C2624       C  0.27063447  0.27974080  0.23209427    -0.09200
C2625       C  0.26817306  0.27878591  0.21783105     0.00400
C2626       C  0.27057432  0.26130010  0.21030314     0.00300
C2627       C  0.27746657  0.24649457  0.21723514    -0.12700
C2628       C  0.27966227  0.24732399  0.23153286     0.00800
C2629       C  0.26226796  0.29535143  0.21130775     0.40100
C2630       C  0.28447070  0.23019781  0.23833410     0.36700
C2631       C  0.22779299  0.24323013  0.25132511     0.36400
C2632       C  0.31018470  0.27339203  0.28533259     0.37200
N2633       N  0.25747700  0.30860025  0.20609680    -0.43600
N2634       N  0.28827746  0.21647492  0.24382423    -0.44100
N2635       N  0.32717527  0.27945793  0.29200066    -0.41400
N2636       N  0.21101775  0.23688836  0.24442884    -0.42900
H2637       H  0.22784276  0.24061449  0.27823049     0.13300
H2638       H  0.30977331  0.27608719  0.25831224     0.09800
H2639       H  0.26755096  0.29233517  0.23790553     0.10900
H2640       H  0.27945100  0.23304182  0.21161190     0.16700
C2641       C  0.26253893  0.09995482  0.33174116    -0.01500
C2642       C  0.24488827  0.10603362  0.32825940     0.07100
C2643       C  0.22227011  0.08784387  0.32379427    -0.07500
C2644       C  0.21662545  0.06385270  0.32329060     0.04500
C2645       C  0.23412537  0.05757807  0.32696370    -0.14700
C2646       C  0.25709621  0.07593259  0.33099370    -0.08100
C2647       C  0.24911551  0.13100074  0.32936555     0.05400
C2648       C  0.26804731  0.14976738  0.32205720    -0.09200
C2649       C  0.27110054  0.17298168  0.32200285     0.00400
C2650       C  0.25447984  0.17754929  0.32904731     0.00300
C2651       C  0.23615748  0.15892161  0.33674773    -0.12700
C2652       C  0.23351208  0.13598814  0.33707213     0.00800
C2653       C  0.29141342  0.19155051  0.31462397     0.40100
C2654       C  0.21464395  0.11787103  0.34549095     0.36700
C2655       C  0.28609072  0.11788217  0.33646745     0.36400
C2656       C  0.19275189  0.04628654  0.31878827     0.37200
N2657       N  0.30787075  0.20637508  0.30879716    -0.43600
N2658       N  0.19952915  0.10333479  0.35222634    -0.44100
N2659       N  0.17355251  0.03232311  0.31522092    -0.41400
N2660       N  0.30498574  0.13229870  0.34021064    -0.42900
H2661       H  0.27077946  0.07149195  0.33375656     0.13300
H2662       H  0.20878436  0.09243456  0.32078299     0.09800
H2663       H  0.28020128  0.14617228  0.31614773     0.10900
H2664       H  0.22349195  0.16211500  0.34241817     0.16700
C2665       C  0.25377847  0.96050190  0.37774564    -0.01500
C2666       C  0.27108452  0.95359377  0.37501395     0.07100
C2667       C  0.27968330  0.95562710  0.36156957    -0.07500
C2668       C  0.27149753  0.96441935  0.35096210     0.04500
C2669       C  0.25333354  0.97028491  0.35355746    -0.14700
C2670       C  0.24482091  0.96832716  0.36704516    -0.08100
C2671       C  0.28001678  0.94374084  0.38594032     0.05400
C2672       C  0.26329609  0.92396191  0.39366690    -0.09200
C2673       C  0.27074595  0.91415311  0.40408685     0.00400
C2674       C  0.29559448  0.92379519  0.40674967     0.00300
C2675       C  0.31233268  0.94332270  0.39884202    -0.12700
C2676       C  0.30480679  0.95341757  0.38860945     0.00800
C2677       C  0.25236257  0.89412549  0.41174183     0.40100
C2678       C  0.32289558  0.97409523  0.38125437     0.36700
C2679       C  0.24550838  0.96052900  0.39150795     0.36400
C2680       C  0.28234089  0.96736976  0.33761811     0.37200
N2681       N  0.23758080  0.87815120  0.41789361    -0.43600
N2682       N  0.33736656  0.99059561  0.37530027    -0.44100
N2683       N  0.29131537  0.96998689  0.32698746    -0.41400
N2684       N  0.23898027  0.96067382  0.40254255    -0.42900
H2685       H  0.23120967  0.97311784  0.36930848     0.13300
H2686       H  0.29288730  0.95027539  0.35932582     0.09800
H2687       H  0.24423737  0.91608873  0.39152822     0.10900
H2688       H  0.33142461  0.95105632  0.40080103     0.16700
C2689       C  0.22554188  0.13418162  0.17539954    -0.01500
C2690       C  0.23629603  0.12897708  0.16433841     0.07100
C2691       C  0.24807625  0.14628812  0.15411117    -0.07500
C2692       C  0.24936723  0.16867371  0.15479414     0.04500
C2693       C  0.23830616  0.17383617  0.16577774    -0.14700
C2694       C  0.22633134  0.15632769  0.17594087    -0.08100
C2695       C  0.23538561  0.10552344  0.16328400     0.05400
C2696       C  0.21330694  0.08487494  0.16056893    -0.09200
C2697       C  0.21141647  0.06223031  0.15996939     0.00400
C2698       C  0.23203121  0.05994883  0.16220299     0.00300
C2699       C  0.25426009  0.08087259  0.16461612    -0.12700
C2700       C  0.25605663  0.10350236  0.16515877     0.00800
C2701       C  0.18798565  0.04182310  0.15716367     0.40100
C2702       C  0.27908979  0.12434262  0.16814098     0.36700
C2703       C  0.21455566  0.11747794  0.18659670     0.36400
C2704       C  0.26178663  0.18569792  0.14394723     0.37200
N2705       N  0.16914694  0.02557106  0.15489725    -0.43600
N2706       N  0.29747606  0.14113807  0.17053988    -0.44100
N2707       N  0.27190839  0.19915911  0.13519027    -0.41400
N2708       N  0.20596769  0.10415321  0.19561783    -0.42900
H2709       H  0.21816008  0.16021390  0.18455969     0.13300
H2710       H  0.25633165  0.14227603  0.14558466     0.09800
H2711       H  0.19743041  0.08648143  0.15901229     0.10900
H2712       H  0.27024701  0.07955836  0.16637465     0.16700
C2713       C  0.30023426  0.97876200  0.12806671    -0.01500
C2714       C  0.28708408  0.96406863  0.11695822     0.07100
C2715       C  0.26251362  0.95625075  0.11576963    -0.07500
C2716       C  0.25091976  0.96298387  0.12543516     0.04500
C2717       C  0.26420481  0.97847062  0.13632173    -0.14700
C2718       C  0.28878472  0.98599709  0.13761059    -0.08100
C2719       C  0.29828346  0.95586534  0.10664417     0.05400
C2720       C  0.30297475  0.93745693  0.11011534    -0.09200
C2721       C  0.31184020  0.92792646  0.10033722     0.00400
C2722       C  0.31592710  0.93676814  0.08673792     0.00300
C2723       C  0.31160308  0.95556104  0.08338888    -0.12700
C2724       C  0.30303285  0.96525005  0.09324496     0.00800
C2725       C  0.31554829  0.90842970  0.10443938     0.40100
C2726       C  0.29952196  0.98502365  0.08949517     0.36700
C2727       C  0.32537052  0.98636816  0.12986991     0.36400
C2728       C  0.22508405  0.95220263  0.12455437     0.37200
N2729       N  0.31853385  0.89280659  0.10771853    -0.43600
N2730       N  0.29684225  0.00099276  0.08659451    -0.44100
N2731       N  0.20435216  0.94331818  0.12401264    -0.41400
N2732       N  0.34546896  0.99221759  0.13127821    -0.42900
H2733       H  0.29901517  0.99744420  0.14609628     0.13300
H2734       H  0.25225251  0.94431908  0.10744808     0.09800
H2735       H  0.29921270  0.93019337  0.12043487     0.10900
H2736       H  0.31495711  0.96274047  0.07305632     0.16700
C2737       C  0.21637661  0.97662558  0.23003350    -0.01500
C2738       C  0.23807727  0.99160902  0.23694880     0.07100
C2739       C  0.25903308  0.00593906  0.22935954    -0.07500
C2740       C  0.25838049  0.00611896  0.21497335     0.04500
C2741       C  0.23637159  0.99170137  0.20803048    -0.14700
C2742       C  0.21567691  0.97679653  0.21573468    -0.08100
C2743       C  0.23855019  0.99350559  0.25208720     0.05400
C2744       C  0.24711518  0.98107541  0.25993730    -0.09200
C2745       C  0.24505591  0.98019864  0.27427857     0.00400
C2746       C  0.23424435  0.99199475  0.28092601     0.00300
C2747       C  0.22646973  0.00507729  0.27298389    -0.12700
C2748       C  0.22858022  0.00595738  0.25872217     0.00800
C2749       C  0.25300162  0.96604776  0.28176561     0.40100
C2750       C  0.21995112  0.01937638  0.25105677     0.36700
C2751       C  0.19447137  0.96125439  0.23744708     0.36400
C2752       C  0.28022094  0.02213215  0.20770560     0.37200
N2753       N  0.25933633  0.95463863  0.28773381    -0.43600
N2754       N  0.21301616  0.03011243  0.24492033    -0.44100
N2755       N  0.29773379  0.03502249  0.20189607    -0.41400
N2756       N  0.17693841  0.94900080  0.24341451    -0.42900
H2757       H  0.19872441  0.96540851  0.21057695     0.13300
H2758       H  0.27572264  0.01753061  0.23469521     0.09800
H2759       H  0.25464695  0.97136012  0.25481077     0.10900
H2760       H  0.21839473  0.01445522  0.27791602     0.16700
C2761       C  0.88382059  0.73296087  0.15533854    -0.01500
C2762       C  0.88258972  0.75430034  0.15590934     0.07100
C2763       C  0.90409882  0.77634788  0.15722860    -0.07500
C2764       C  0.92635201  0.77733614  0.15848111     0.04500
C2765       C  0.92732969  0.75580590  0.15893011    -0.14700
C2766       C  0.90594079  0.73387407  0.15694869    -0.08100
C2767       C  0.85903301  0.75375434  0.15649407     0.05400
C2768       C  0.84215653  0.73917781  0.16640666    -0.09200
C2769       C  0.82016978  0.73852370  0.16789939     0.00400
C2770       C  0.81480986  0.75331006  0.15960222     0.00300
C2771       C  0.83167432  0.76793520  0.14964832    -0.12700
C2772       C  0.85353441  0.76818116  0.14798244     0.00800
C2773       C  0.80397481  0.72306004  0.17840759     0.40100
C2774       C  0.86990992  0.78334021  0.13744951     0.36700
C2775       C  0.86259904  0.70978015  0.15328653     0.36400
C2776       C  0.94767922  0.80071917  0.15950270     0.37200
N2777       N  0.79103778  0.71059302  0.18682013    -0.43600
N2778       N  0.88306585  0.79562958  0.12905960    -0.44100
N2779       N  0.96473312  0.81951033  0.16020752    -0.41400
N2780       N  0.84560715  0.69116935  0.15172507    -0.42900
H2781       H  0.90633992  0.71720553  0.15696380     0.13300
H2782       H  0.90347597  0.79287640  0.15775173     0.09800
H2783       H  0.84638743  0.72850843  0.17326286     0.10900
H2784       H  0.82785378  0.77934362  0.14317424     0.16700
C2785       C  0.08036302  0.85155049  0.15243716    -0.01500
C2786       C  0.09637780  0.86218418  0.16345925     0.07100
C2787       C  0.09044959  0.85103729  0.17634077    -0.07500
C2788       C  0.06881420  0.82949962  0.17839277     0.04500
C2789       C  0.05254364  0.81877465  0.16734521    -0.14700
C2790       C  0.05868631  0.83008463  0.15444691    -0.08100
C2791       C  0.11939705  0.88504240  0.16187436     0.05400
C2792       C  0.11902967  0.90658796  0.16076615    -0.09200
C2793       C  0.14048200  0.92874952  0.16051705     0.00400
C2794       C  0.16289060  0.92950359  0.16143247     0.00300
C2795       C  0.16308333  0.90774379  0.16201041    -0.12700
C2796       C  0.14162229  0.88565980  0.16221417     0.00800
C2797       C  0.13873237  0.95027106  0.15993465     0.40100
C2798       C  0.14277923  0.86381771  0.16279941     0.36700
C2799       C  0.08603776  0.86204325  0.13891010     0.36400
C2800       C  0.06398875  0.81903756  0.19193888     0.37200
N2801       N  0.13719390  0.96744581  0.15948219    -0.43600
N2802       N  0.14366722  0.84628645  0.16322939    -0.44100
N2803       N  0.06025888  0.81072994  0.20281297    -0.41400
N2804       N  0.09052941  0.87034041  0.12803614    -0.42900
H2805       H  0.04661228  0.82205236  0.14581937     0.13300
H2806       H  0.10281084  0.85927224  0.18483396     0.09800
H2807       H  0.10188665  0.90608705  0.16048519     0.10900
H2808       H  0.18006823  0.90794643  0.16249997     0.16700
C2809       C  0.04509325  0.70454806  0.09952256    -0.01500
C2810       C  0.04366846  0.69626291  0.11307896     0.07100
C2811       C  0.05289508  0.68107997  0.11605695    -0.07500
C2812       C  0.06359157  0.67422149  0.10584861     0.04500
C2813       C  0.06477546  0.68224308  0.09218029    -0.14700
C2814       C  0.05540715  0.69739741  0.08923796    -0.08100
C2815       C  0.03260807  0.70322430  0.12426919     0.05400
C2816       C  0.00840331  0.69709357  0.12315561    -0.09200
C2817       C  0.99760725  0.70435274  0.13308872     0.00400
C2818       C  0.01110722  0.71795909  0.14450587     0.00300
C2819       C  0.03502449  0.72308876  0.14592937    -0.12700
C2820       C  0.04585245  0.71598264  0.13592252     0.00800
C2821       C  0.97264444  0.69746266  0.13129495     0.40100
C2822       C  0.07090820  0.72303225  0.13750666     0.36700
C2823       C  0.03684595  0.72106008  0.09599546     0.36400
C2824       C  0.07347690  0.65929037  0.10986315     0.37200
N2825       N  0.95262562  0.69191970  0.12987011    -0.43600
N2826       N  0.09097958  0.72865308  0.13875529    -0.44100
N2827       N  0.08150459  0.64743734  0.11313038    -0.41400
N2828       N  0.03029942  0.73433932  0.09316866    -0.42900
H2829       H  0.05637452  0.70396831  0.07888655     0.13300
H2830       H  0.05181408  0.67462870  0.12645604     0.09800
H2831       H  0.99797638  0.68680503  0.11437789     0.10900
H2832       H  0.04567048  0.73358344  0.15458928     0.16700
C2833       C  0.89049184  0.76283440  0.31410826    -0.01500
C2834       C  0.87306145  0.75195271  0.32450158     0.07100
C2835       C  0.87642508  0.73846725  0.33466553    -0.07500
C2836       C  0.89728292  0.73657521  0.33494971     0.04500
C2837       C  0.91566877  0.74901969  0.32513302    -0.14700
C2838       C  0.91173134  0.76172980  0.31465324    -0.08100
C2839       C  0.85130320  0.75456545  0.32501307     0.05400
C2840       C  0.82857722  0.73430140  0.32300434    -0.09200
C2841       C  0.80764576  0.73604261  0.32335234     0.00400
C2842       C  0.80922672  0.75853507  0.32581190     0.00300
C2843       C  0.83210007  0.77873808  0.32802317    -0.12700
C2844       C  0.85296603  0.77690211  0.32770852     0.00800
C2845       C  0.78494478  0.71442134  0.32097994     0.40100
C2846       C  0.87586763  0.79805722  0.33051887     0.36700
C2847       C  0.88651422  0.77438569  0.30250666     0.36400
C2848       C  0.89917348  0.72173760  0.34542210     0.37200
N2849       N  0.76677243  0.69705029  0.31907947    -0.43600
N2850       N  0.89424595  0.81494938  0.33280065    -0.44100
N2851       N  0.90048064  0.70959674  0.35374137    -0.41400
N2852       N  0.88318782  0.78335043  0.29311562    -0.42900
H2853       H  0.92513233  0.77055917  0.30669780     0.13300
H2854       H  0.86274124  0.72951731  0.34247149     0.09800
H2855       H  0.82722726  0.71706421  0.32102375     0.10900
H2856       H  0.83376274  0.79609654  0.33002331     0.16700
C2857       C  0.08406294  0.83875877  0.33246857    -0.01500
C2858       C  0.08479578  0.85975061  0.32754790     0.07100
C2859       C  0.06348998  0.85848812  0.32291803    -0.07500
C2860       C  0.04171704  0.83657400  0.32284478     0.04500
C2861       C  0.04110988  0.81540895  0.32745656    -0.14700
C2862       C  0.06239718  0.81686263  0.33231805    -0.08100
C2863       C  0.10794798  0.88272881  0.32635460     0.05400
C2864       C  0.12553895  0.88378394  0.31741937    -0.09200
C2865       C  0.14801142  0.90463728  0.31624139     0.00400
C2866       C  0.15326811  0.92519319  0.32413452     0.00300
C2867       C  0.13536380  0.92420568  0.33288775    -0.12700
C2868       C  0.11286737  0.90323998  0.33403983     0.00800
C2869       C  0.16511740  0.90422267  0.30679168     0.40100
C2870       C  0.09538101  0.90296013  0.34345052     0.36700
C2871       C  0.10534888  0.83932617  0.33778165     0.36400
C2872       C  0.02066693  0.83609667  0.31722700     0.37200
N2873       N  0.17879133  0.90384045  0.29921404    -0.43600
N2874       N  0.08135494  0.90274151  0.35098639    -0.44100
N2875       N  0.00377654  0.83562213  0.31268167    -0.41400
N2876       N  0.12245609  0.83989246  0.34203885    -0.42900
H2877       H  0.06214466  0.80079549  0.33597349     0.13300
H2878       H  0.06403401  0.87453740  0.31898030     0.09800
H2879       H  0.12168307  0.86809885  0.31137031     0.10900
H2880       H  0.13901379  0.93974182  0.33900609     0.16700
C2881       C  0.04529927  0.68800743  0.38336472    -0.01500
C2882       C  0.02269907  0.68580615  0.38614506     0.07100
C2883       C  0.01137297  0.67572069  0.39866317    -0.07500
C2884       C  0.02230189  0.66814549  0.40841374     0.04500
C2885       C  0.04505636  0.67041141  0.40564959    -0.14700
C2886       C  0.05611804  0.68020532  0.39300002    -0.08100
C2887       C  0.01079213  0.69394394  0.37603371     0.05400
C2888       C  0.00428398  0.68275834  0.36317450    -0.09200
C2889       C  0.99516641  0.69120819  0.35285464     0.00400
C2890       C  0.99263771  0.71157939  0.35523654     0.00300
C2891       C  0.99798969  0.72194830  0.36840589    -0.12700
C2892       C  0.00685261  0.71326035  0.37876491     0.00800
C2893       C  0.98877160  0.67859077  0.33994327     0.40100
C2894       C  0.01261615  0.72503697  0.39194521     0.36700
C2895       C  0.05824568  0.69918037  0.37091247     0.36400
C2896       C  0.00966267  0.65821851  0.42112576     0.37200
N2897       N  0.98357623  0.66832160  0.32963744    -0.43600
N2898       N  0.01709464  0.73436884  0.40253801    -0.44100
N2899       N  0.99949889  0.65032578  0.43131331    -0.41400
N2900       N  0.06864331  0.70822115  0.36095374    -0.42900
H2901       H  0.07365384  0.68241329  0.39073566     0.13300
H2902       H  0.99394216  0.67384261  0.40083865     0.09800
H2903       H  0.00674861  0.66754064  0.36112091     0.10900
H2904       H  0.99594802  0.73738469  0.37053934     0.16700
C2905       C  0.94890992  0.71141549  0.26327726    -0.01500
C2906       C  0.96880939  0.72242752  0.25438691     0.07100
C2907       C  0.99202583  0.73539229  0.25989673    -0.07500
C2908       C  0.99563486  0.73846578  0.27407062     0.04500
C2909       C  0.97563578  0.72823865  0.28306789    -0.14700
C2910       C  0.95244380  0.71422387  0.27749232    -0.08100
C2911       C  0.96604734  0.72281874  0.23932083     0.05400
C2912       C  0.95968488  0.73899165  0.23379700    -0.09200
C2913       C  0.96126253  0.74346412  0.21968589     0.00400
C2914       C  0.96962147  0.73174927  0.21083492     0.00300
C2915       C  0.97411936  0.71412557  0.21630459    -0.12700
C2916       C  0.97242628  0.70964277  0.23044685     0.00800
C2917       C  0.95441820  0.76034489  0.21465047     0.40100
C2918       C  0.97773712  0.69181134  0.23569839     0.36700
C2919       C  0.92474259  0.69748630  0.25801738     0.36400
C2920       C  0.02005173  0.75254809  0.27896901     0.37200
N2921       N  0.94886923  0.77381769  0.21061336    -0.43600
N2922       N  0.98182048  0.67739634  0.23992015    -0.44100
N2923       N  0.03967240  0.76387929  0.28280675    -0.41400
N2924       N  0.90536035  0.68624093  0.25381566    -0.42900
H2925       H  0.93689756  0.70625058  0.28420686     0.13300
H2926       H  0.00736249  0.74386738  0.25303704     0.09800
H2927       H  0.95441483  0.74888758  0.24061022     0.10900
H2928       H  0.98004234  0.70461524  0.20963070     0.16700
loop_ 
_geom_bond_atom_site_label_1 
_geom_bond_atom_site_label_2 
_geom_bond_distance 
_geom_bond_site_symmetry_2 
_ccdc_geom_bond_type 
In1           O3   2.260       .  S
In1           O4   2.242       .  S
In1          O12   2.257       .  S
In1           O6   2.255       .  S
In1           O8   2.246       .  S
In1           O9   2.254       .  S
In1          O10   2.262       .  S
In1          O13   2.240   1_655  S
C2            O8   1.257       .  A
C2           O10   1.260       .  A
C2         C2909   1.487       .  S
O3           C11   1.263       .  A
O4           C11   1.260       .  A
C5           O12   1.262       .  A
C5            O6   1.263       .  A
C5         C2890   1.495       .  S
C7            O9   1.262   1_455  A
C7           O13   1.260       .  A
C7         C2861   1.482       .  S
C11        C2837   1.490       .  S
In14         O16   2.245   1_655  S
In14         O17   2.241   1_655  S
In14         O25   2.243       .  S
In14         O19   2.252   1_655  S
In14         O21   2.265       .  S
In14         O22   2.244       .  S
In14         O23   2.230       .  S
In14         O26   2.246       .  S
C15          O21   1.263       .  A
C15          O23   1.258       .  A
C15        C2914   1.485       .  S
O16          C24   1.260       .  A
O17          C24   1.261       .  A
C18          O25   1.260   1_455  A
C18          O19   1.260       .  A
C18        C2818   1.485       .  S
C20          O22   1.261       .  A
C20          O26   1.263       .  A
C20        C2765   1.489       .  S
C24        C2789   1.486       .  S
In27         O29   2.264   1_565  S
In27         O30   2.241   1_565  S
In27         O38   2.238       .  S
In27         O32   2.254       .  S
In27         O34   2.263       .  S
In27         O35   2.240       .  S
In27         O36   2.233       .  S
In27         O39   2.240       .  S
C28          O34   1.260       .  A
C28          O36   1.258       .  A
C28        C2741   1.483       .  S
O29          C37   1.260       .  A
O30          C37   1.256       .  A
C31          O38   1.259       .  A
C31          O32   1.259       .  A
C31        C2717   1.478       .  S
C33          O35   1.262       .  A
C33          O39   1.263       .  A
C33        C2794   1.485       .  S
C37        C2698   1.489       .  S
In40         O42   2.234       .  S
In40         O43   2.257       .  S
In40         O51   2.244       .  S
In40         O45   2.245       .  S
In40         O47   2.258       .  S
In40         O48   2.235   1_565  S
In40         O49   2.229       .  S
In40         O52   2.259   1_565  S
C41          O47   1.263       .  A
C41          O49   1.260       .  A
C41        C2746   1.483       .  S
O42          C50   1.259       .  A
O43          C50   1.262       .  A
C44          O51   1.261       .  A
C44          O45   1.261       .  A
C44        C2669   1.488       .  S
C46          O48   1.260       .  A
C46          O52   1.262       .  A
C46        C2645   1.487       .  S
C50        C2866   1.488       .  S
In53         O55   2.256       .  S
In53         O56   2.246       .  S
In53         O64   2.251       .  S
In53         O58   2.250       .  S
In53         O60   2.256       .  S
In53         O61   2.259       .  S
In53         O62   2.233       .  S
In53         O65   2.245       .  S
C54          O60   1.261       .  A
C54          O62   1.258       .  A
C54        C2621   1.485       .  S
O55          C63   1.258       .  A
O56          C63   1.261       .  A
C57          O64   1.263       .  A
C57          O58   1.263       .  A
C57        C2597   1.488       .  S
C59          O61   1.261       .  A
C59          O65   1.259       .  A
C59        C2573   1.488       .  S
C63        C2650   1.488       .  S
In66         O68   2.242       .  S
In66         O69   2.256       .  S
In66         O77   2.235       .  S
In66         O71   2.252       .  S
In66         O73   2.257       .  S
In66         O74   2.246       .  S
In66         O75   2.237       .  S
In66         O78   2.252       .  S
C67          O73   1.260       .  A
C67          O75   1.258       .  A
C67        C2626   1.482       .  S
O68          C76   1.257       .  A
O69          C76   1.260       .  A
C70          O77   1.261       .  A
C70          O71   1.264       .  A
C70        C2549   1.485       .  S
C72          O74   1.260       .  A
C72          O78   1.260       .  A
C72        C2693   1.481       .  S
C76        C2530   1.484       .  S
In79         O81   2.247       .  S
In79         O82   2.238       .  S
In79         O90   2.248   1_655  S
In79         O84   2.246   1_655  S
In79         O86   2.260       .  S
In79         O87   2.247   1_655  S
In79         O88   2.237       .  S
In79         O91   2.239   1_655  S
C80          O86   1.262       .  A
C80          O88   1.260       .  A
C80        C2501   1.484       .  S
O81          C89   1.263       .  A
O82          C89   1.261       .  A
C83          O90   1.260       .  A
C83          O84   1.261       .  A
C83        C2477   1.487       .  S
C85          O87   1.261       .  A
C85          O91   1.258       .  A
C85        C2525   1.484       .  S
C89        C2458   1.484       .  S
In92         O94   2.245       .  S
In92         O95   2.251       .  S
In92        O103   2.232       .  S
In92         O97   2.249       .  S
In92         O99   2.265       .  S
In92        O100   2.240   1_455  S
In92        O101   2.233       .  S
In92        O104   2.245   1_455  S
C93          O99   1.263       .  A
C93         O101   1.258       .  A
C93        C2506   1.489       .  S
O94         C102   1.261       .  A
O95         C102   1.263       .  A
C96         O103   1.260       .  A
C96          O97   1.264       .  A
C96        C2429   1.485       .  S
C98         O100   1.261       .  A
C98         O104   1.261       .  A
C98        C2405   1.484       .  S
C102       C2578   1.490       .  S
In105       O107   2.245       .  S
In105       O108   2.242       .  S
In105       O116   2.226       .  S
In105       O110   2.249       .  S
In105       O112   2.248       .  S
In105       O113   2.260   1_545  S
In105       O114   2.222       .  S
In105       O117   2.233   1_545  S
C106        O112   1.262       .  A
C106        O114   1.260       .  A
C106       C2381   1.479       .  S
O107        C115   1.261       .  A
O108        C115   1.261       .  A
C109        O116   1.260       .  A
C109        O110   1.260       .  A
C109       C2362   1.483   1_545  S
C111        O113   1.262       .  A
C111        O117   1.258       .  A
C111       C2338   1.486       .  S
C115       C2410   1.483       .  S
In118       O120   2.236   1_545  S
In118       O121   2.245   1_545  S
In118       O129   2.237   1_545  S
In118       O123   2.269   1_545  S
In118       O125   2.269       .  S
In118       O126   2.242       .  S
In118       O127   2.218   1_545  S
In118       O130   2.255       .  S
C119        O125   1.264       .  A
C119        O127   1.258   1_545  A
C119       C2386   1.486       .  S
O120        C128   1.260       .  A
O121        C128   1.262       .  A
C122        O129   1.260       .  A
C122        O123   1.262       .  A
C122       C2314   1.492       .  S
C124        O126   1.260       .  A
C124        O130   1.262       .  A
C124       C2453   1.486       .  S
C128       C2285   1.483       .  S
In131       O133   2.240       .  S
In131       O134   2.257       .  S
In131       O142   2.233       .  S
In131       O136   2.259       .  S
In131       O138   2.250       .  S
In131       O139   2.245       .  S
In131       O140   2.234       .  S
In131       O143   2.249       .  S
C132        O138   1.262       .  A
C132        O140   1.261       .  A
C132       C2261   1.484       .  S
O133        C141   1.260       .  A
O134        C141   1.261       .  A
C135        O142   1.259       .  A
C135        O136   1.261       .  A
C135       C2237   1.485       .  S
C137        O139   1.260       .  A
C137        O143   1.261       .  A
C137       C2290   1.488       .  S
C141       C2770   1.488       .  S
In144       O146   2.244       .  S
In144       O147   2.250       .  S
In144       O155   2.242       .  S
In144       O149   2.264       .  S
In144       O151   2.263       .  S
In144       O152   2.256       .  S
In144       O153   2.222       .  S
In144       O156   2.250       .  S
C145        O151   1.264       .  A
C145        O153   1.259       .  A
C145       C2266   1.484       .  S
O146        C154   1.261       .  A
O147        C154   1.262       .  A
C148        O155   1.259       .  A
C148        O149   1.262       .  A
C148       C2213   1.491       .  S
C150        O152   1.261       .  A
C150        O156   1.260       .  A
C150       C2842   1.492       .  S
C154       C2333   1.484       .  S
In157       O159   2.267       .  S
In157       O160   2.238       .  S
In157       O168   2.260       .  S
In157       O162   2.251       .  S
In157       O164   2.267       .  S
In157       O165   2.239       .  S
In157       O166   2.253       .  S
In157       O169   2.255       .  S
C158        O164   1.259       .  A
C158        O166   1.257       .  A
C158       C2170   1.491       .  S
O159        C167   1.261       .  A
O160        C167   1.256       .  A
C161        O168   1.261       .  A
C161        O162   1.260       .  A
C161       C2146   1.490       .  S
C163        O165   1.258       .  A
C163        O169   1.263       .  A
C163       C2122   1.484       .  S
C167       C2189   1.488       .  S
In170       O172   2.236       .  S
In170       O173   2.243       .  S
In170       O181   2.235       .  S
In170       O175   2.264       .  S
In170       O177   2.238       .  S
In170       O178   2.243       .  S
In170       O179   2.268       .  S
In170       O182   2.248       .  S
C171        O177   1.257       .  A
C171        O179   1.262       .  A
C171       C2045   1.488       .  S
O172        C180   1.262       .  A
O173        C180   1.263       .  A
C174        O181   1.258       .  A
C174        O175   1.261       .  A
C174       C2194   1.485       .  S
C176        O178   1.259       .  A
C176        O182   1.261       .  A
C176       C2074   1.485       .  S
C180       C2098   1.483       .  S
In183       O185   2.252       .  S
In183       O186   2.248       .  S
In183       O194   2.246       .  S
In183       O188   2.258       .  S
In183       O190   2.257       .  S
In183       O191   2.247       .  S
In183       O192   2.234       .  S
In183       O195   2.243       .  S
C184        O190   1.263       .  A
C184        O192   1.259       .  A
C184       C2165   1.489       .  S
O185        C193   1.261       .  A
O186        C193   1.261       .  A
C187        O194   1.259       .  A
C187        O188   1.262       .  A
C187       C1997   1.487       .  S
C189        O191   1.261       .  A
C189        O195   1.261       .  A
C189       C2554   1.485       .  S
C193       C2021   1.485       .  S
In196       O198   2.251       .  S
In196       O199   2.255       .  S
In196       O207   2.241       .  S
In196       O201   2.254       .  S
In196       O203   2.245       .  S
In196       O204   2.265       .  S
In196       O205   2.255       .  S
In196       O208   2.251       .  S
C197        O203   1.259       .  A
C197        O205   1.260       .  A
C197       C2242   1.487       .  S
O198        C206   1.260       .  A
O199        C206   1.260       .  A
C200        O207   1.261       .  A
C200        O201   1.261       .  A
C200       C2026   1.487       .  S
C202        O204   1.262       .  A
C202        O208   1.260       .  A
C202       C1973   1.493       .  S
C206       C2093   1.490       .  S
In209       O211   2.237       .  S
In209       O212   2.249       .  S
In209       O220   2.242       .  S
In209       O214   2.252       .  S
In209       O216   2.249       .  S
In209       O217   2.240       .  S
In209       O218   2.252       .  S
In209       O221   2.244       .  S
C210        O216   1.260       .  A
C210        O218   1.260       .  A
C210       C2482   1.484       .  S
O211        C219   1.259       .  A
O212        C219   1.261       .  A
C213        O220   1.260       .  A
C213        O214   1.260       .  A
C213       C1949   1.487       .  S
C215        O217   1.261       .  A
C215        O221   1.262       .  A
C215       C2002   1.485       .  S
C219       C1930   1.486       .  S
In222       O224   2.253       .  S
In222       O225   2.241       .  S
In222       O233   2.247       .  S
In222       O227   2.264       .  S
In222       O229   2.270       .  S
In222       O230   2.238       .  S
In222       O231   2.253       .  S
In222       O234   2.254       .  S
C223        O229   1.261       .  A
C223        O231   1.258       .  A
C223       C1882   1.493       .  S
O224        C232   1.263       .  A
O225        C232   1.260       .  A
C226        O233   1.258       .  A
C226        O227   1.263       .  A
C226       C1901   1.492       .  S
C228        O230   1.259       .  A
C228        O234   1.262       .  A
C228       C2813   1.488       .  S
C232       C1954   1.488       .  S
In235       O237   2.249       .  S
In235       O238   2.256       .  S
In235       O246   2.254       .  S
In235       O240   2.246       .  S
In235       O242   2.248       .  S
In235       O243   2.257       .  S
In235       O244   2.244       .  S
In235       O247   2.258       .  S
C236        O242   1.262       .  A
C236        O244   1.261       .  A
C236       C1805   1.483       .  S
O237        C245   1.260       .  A
O238        C245   1.261       .  A
C239        O246   1.260       .  A
C239        O240   1.259       .  A
C239       C1853   1.488       .  S
C241        O243   1.260       .  A
C241        O247   1.260       .  A
C241       C1834   1.492       .  S
C245       C1925   1.490       .  S
In248       O250   2.248       .  S
In248       O251   2.262       .  S
In248       O259   2.246       .  S
In248       O253   2.253       .  S
In248       O255   2.243       .  S
In248       O256   2.254       .  S
In248       O257   2.247       .  S
In248       O260   2.241       .  S
C249        O255   1.261       .  A
C249        O257   1.262       .  A
C249       C1877   1.486       .  S
O250        C258   1.259       .  A
O251        C258   1.260       .  A
C252        O259   1.259       .  A
C252        O253   1.259       .  A
C252       C2069   1.484       .  S
C254        O256   1.262       .  A
C254        O260   1.260       .  A
C254       C1781   1.489       .  S
C258       C1858   1.486       .  S
In261       O263   2.243       .  S
In261       O264   2.264       .  S
In261       O272   2.253       .  S
In261       O266   2.236       .  S
In261       O268   2.250       .  S
In261       O269   2.265       .  S
In261       O270   2.239       .  S
In261       O273   2.246       .  S
C262        O268   1.260       .  A
C262        O270   1.260       .  A
C262       C1714   1.484       .  S
O263        C271   1.259       .  A
O264        C271   1.263       .  A
C265        O272   1.263       .  A
C265        O266   1.260       .  A
C265       C1757   1.482       .  S
C267        O269   1.262       .  A
C267        O273   1.259       .  A
C267       C2141   1.490       .  S
C271       C1738   1.490       .  S
In274       O276   2.245       .  S
In274       O277   2.256       .  S
In274       O285   2.260       .  S
In274       O279   2.243       .  S
In274       O281   2.259       .  S
In274       O282   2.243       .  S
In274       O283   2.255       .  S
In274       O286   2.250       .  S
C275        O281   1.260       .  A
C275        O283   1.260       .  A
C275       C1685   1.489       .  S
O276        C284   1.261       .  A
O277        C284   1.259       .  A
C278        O285   1.263       .  A
C278        O279   1.261       .  A
C278       C1829   1.493       .  S
C280        O282   1.260       .  A
C280        O286   1.260       .  A
C280       C1666   1.481       .  S
C284       C1762   1.489       .  S
In287       O289   2.258       .  S
In287       O290   2.253       .  S
In287       O298   2.251       .  S
In287       O292   2.268       .  S
In287       O294   2.265       .  S
In287       O295   2.262       .  S
In287       O296   2.254       .  S
In287       O299   2.249       .  S
C288        O294   1.261       .  A
C288        O296   1.260       .  A
C288       C1690   1.494       .  S
O289        C297   1.260       .  A
O290        C297   1.260       .  A
C291        O298   1.260       .  A
C291        O292   1.262       .  A
C291       C1978   1.492       .  S
C293        O295   1.261       .  A
C293        O299   1.260       .  A
C293       C2309   1.489       .  S
C297       C1642   1.491       .  S
In300       O302   2.238       .  S
In300       O303   2.257       .  S
In300       O311   2.250       .  S
In300       O305   2.236       .  S
In300       O307   2.247       .  S
In300       O308   2.254       .  S
In300       O309   2.245       .  S
In300       O312   2.250       .  S
C301        O307   1.259       .  A
C301        O309   1.259       .  A
C301       C2722   1.481       .  S
O302        C310   1.260       .  A
O303        C310   1.263       .  A
C304        O311   1.263       .  A
C304        O305   1.261       .  A
C304       C1637   1.483       .  S
C306        O308   1.260       .  A
C306        O312   1.261       .  A
C306       C1906   1.488       .  S
C310       C1733   1.486       .  S
In313       O315   2.254       .  S
In313       O316   2.267       .  S
In313       O324   2.245       .  S
In313       O318   2.264       .  S
In313       O320   2.250       .  S
In313       O321   2.272       .  S
In313       O322   2.252       .  S
In313       O325   2.233       .  S
C314        O320   1.261       .  A
C314        O322   1.259       .  A
C314       C1565   1.483       .  S
O315        C323   1.258       .  A
O316        C323   1.262       .  A
C317        O324   1.260       .  A
C317        O318   1.261       .  A
C317       C1613   1.488       .  S
C319        O321   1.263       .  A
C319        O325   1.259       .  A
C319       C1541   1.491       .  S
C323       C1589   1.491       .  S
In326       O328   2.242       .  S
In326       O329   2.259       .  S
In326       O337   2.244       .  S
In326       O331   2.256       .  S
In326       O333   2.247       .  S
In326       O334   2.245       .  S
In326       O335   2.242       .  S
In326       O338   2.263       .  S
C327        O333   1.263       .  A
C327        O335   1.261       .  A
C327       C1474   1.483       .  S
O328        C336   1.257       .  A
O329        C336   1.261       .  A
C330        O337   1.261       .  A
C330        O331   1.261       .  A
C330       C1594   1.490       .  S
C332        O334   1.260       .  A
C332        O338   1.262       .  A
C332       C1517   1.491       .  S
C336       C1493   1.487       .  S
In339       O341   2.247       .  S
In339       O342   2.251       .  S
In339       O350   2.243       .  S
In339       O344   2.240       .  S
In339       O346   2.258       .  S
In339       O347   2.254       .  S
In339       O348   2.230       .  S
In339       O351   2.235       .  S
C340        O346   1.262       .  A
C340        O348   1.259       .  A
C340       C2357   1.483       .  S
O341        C349   1.260       .  A
O342        C349   1.261       .  A
C343        O350   1.260       .  A
C343        O344   1.261       .  A
C343       C1445   1.484       .  S
C345        O347   1.261       .  A
C345        O351   1.260       .  A
C345       C1421   1.484       .  S
C349       C1498   1.484       .  S
In352       O354   2.236       .  S
In352       O355   2.267       .  S
In352       O363   2.248       .  S
In352       O357   2.234       .  S
In352       O359   2.242       .  S
In352       O360   2.253       .  S
In352       O361   2.253       .  S
In352       O364   2.236       .  S
C353        O359   1.259       .  A
C353        O361   1.260       .  A
C353       C1570   1.484       .  S
O354        C362   1.258       .  A
O355        C362   1.261       .  A
C356        O363   1.262       .  A
C356        O357   1.260       .  A
C356       C1397   1.482       .  S
C358        O360   1.263       .  A
C358        O364   1.259       .  A
C358       C2674   1.486       .  S
C362       C1450   1.487       .  S
In365       O367   2.247       .  S
In365       O368   2.246       .  S
In365       O376   2.240       .  S
In365       O370   2.248       .  S
In365       O372   2.252       .  S
In365       O373   2.242       .  S
In365       O374   2.238       .  S
In365       O377   2.250       .  S
C366        O372   1.261       .  A
C366        O374   1.260       .  A
C366       C1325   1.483       .  S
O367        C375   1.260       .  A
O368        C375   1.262       .  A
C369        O376   1.258       .  A
C369        O370   1.261       .  A
C369       C1373   1.483       .  S
C371        O373   1.261       .  A
C371        O377   1.260       .  A
C371       C1618   1.487       .  S
C375       C1354   1.488       .  S
In378       O380   2.242       .  S
In378       O381   2.242       .  S
In378       O389   2.233       .  S
In378       O383   2.249       .  S
In378       O385   2.256       .  S
In378       O386   2.253       .  S
In378       O387   2.239       .  S
In378       O390   2.238       .  S
C379        O385   1.261       .  A
C379        O387   1.259       .  A
C379       C1301   1.480       .  S
O380        C388   1.260       .  A
O381        C388   1.261       .  A
C382        O389   1.260       .  A
C382        O383   1.263       .  A
C382       C1282   1.486       .  S
C384        O386   1.261       .  A
C384        O390   1.260       .  A
C384       C1253   1.485       .  S
C388       C1378   1.486       .  S
In391       O393   2.248       .  S
In391       O394   2.248       .  S
In391       O402   2.255       .  S
In391       O396   2.256       .  S
In391       O398   2.255       .  S
In391       O399   2.239       .  S
In391       O400   2.251       .  S
In391       O403   2.258       .  S
C392        O398   1.262       .  A
C392        O400   1.259       .  A
C392       C2602   1.490       .  S
O393        C401   1.261       .  A
O394        C401   1.259       .  A
C395        O402   1.260       .  A
C395        O396   1.261       .  A
C395       C1234   1.493       .  S
C397        O399   1.259       .  A
C397        O403   1.261       .  A
C397       C1205   1.487       .  S
C401       C1349   1.488       .  S
In404       O406   2.249       .  S
In404       O407   2.253       .  S
In404       O415   2.248       .  S
In404       O409   2.250       .  S
In404       O411   2.271       .  S
In404       O412   2.257       .  S
In404       O413   2.236       .  S
In404       O416   2.251       .  S
C405        O411   1.262       .  A
C405        O413   1.259       .  A
C405       C1306   1.491       .  S
O406        C414   1.260       .  A
O407        C414   1.261       .  A
C408        O415   1.260       .  A
C408        O409   1.261       .  A
C408       C1426   1.488       .  S
C410        O412   1.261       .  A
C410        O416   1.261       .  A
C410       C2218   1.490       .  S
C414       C1229   1.489       .  S
In417       O419   2.257       .  S
In417       O420   2.240       .  S
In417       O428   2.258       .  S
In417       O422   2.257       .  S
In417       O424   2.277       .  S
In417       O425   2.240       .  S
In417       O426   2.249       .  S
In417       O429   2.248       .  S
C418        O424   1.263       .  A
C418        O426   1.257       .  A
C418       C1162   1.493       .  S
O419        C427   1.262       .  A
O420        C427   1.259       .  A
C421        O428   1.261       .  A
C421        O422   1.263       .  A
C421       C1210   1.492       .  S
C423        O425   1.259       .  A
C423        O429   1.260       .  A
C423       C2434   1.477       .  S
C427       C1186   1.490       .  S
In430       O432   2.243       .  S
In430       O433   2.248       .  S
In430       O441   2.260       .  S
In430       O435   2.253       .  S
In430       O437   2.263       .  S
In430       O438   2.248       .  S
In430       O439   2.251       .  S
In430       O442   2.245       .  S
C431        O437   1.263       .  A
C431        O439   1.258       .  A
C431       C2885   1.493       .  S
O432        C440   1.261       .  A
O433        C440   1.261       .  A
C434        O441   1.259       .  A
C434        O435   1.260       .  A
C434       C1181   1.489       .  S
C436        O438   1.260       .  A
C436        O442   1.259       .  A
C436       C1402   1.481       .  S
C440       C1133   1.486       .  S
In443       O445   2.259       .  S
In443       O446   2.259       .  S
In443       O454   2.256       .  S
In443       O448   2.256       .  S
In443       O450   2.263       .  S
In443       O451   2.244       .  S
In443       O452   2.248       .  S
In443       O455   2.244       .  S
C444        O450   1.261       .  A
C444        O452   1.258       .  A
C444       C1157   1.491       .  S
O445        C453   1.260       .  A
O446        C453   1.260       .  A
C447        O454   1.260       .  A
C447        O448   1.262       .  A
C447       C1522   1.491       .  S
C449        O451   1.262       .  A
C449        O455   1.261       .  A
C449       C1085   1.485       .  S
C453       C1109   1.492       .  S
In456       O458   2.250       .  S
In456       O459   2.256       .  S
In456       O467   2.244       .  S
In456       O461   2.266       .  S
In456       O463   2.258       .  S
In456       O464   2.255       .  S
In456       O465   2.251       .  S
In456       O468   2.257       .  S
C457        O463   1.263       .  A
C457        O465   1.260       .  A
C457       C1061   1.493       .  S
O458        C466   1.260       .  A
O459        C466   1.262       .  A
C460        O467   1.259       .  A
C460        O461   1.263       .  A
C460       C1114   1.489       .  S
C462        O464   1.260       .  A
C462        O468   1.260       .  A
C462       C1277   1.491       .  S
C466       C1138   1.485       .  S
In469       O471   2.253       .  S
In469       O472   2.238       .  S
In469       O480   2.233       .  S
In469       O474   2.259   1_455  S
In469       O476   2.263       .  S
In469       O477   2.243   1_455  S
In469       O478   2.235   1_455  S
In469       O481   2.241   1_455  S
C470        O476   1.264       .  A
C470        O478   1.260   1_455  A
C470       C1037   1.490       .  S
O471        C479   1.262       .  A
O472        C479   1.260       .  A
C473        O480   1.257   1_655  A
C473        O474   1.262       .  A
C473       C1066   1.487       .  S
C475        O477   1.262       .  A
C475        O481   1.260       .  A
C475        C994   1.485       .  S
C479       C1013   1.481       .  S
In482       O484   2.237   1_455  S
In482       O485   2.237   1_455  S
In482       O493   2.232   1_455  S
In482       O487   2.277       .  S
In482       O489   2.265       .  S
In482       O490   2.233       .  S
In482       O491   2.240       .  S
In482       O494   2.254       .  S
C483        O489   1.264       .  A
C483        O491   1.259       .  A
C483       C1042   1.488       .  S
O484        C492   1.262       .  A
O485        C492   1.261       .  A
C486        O493   1.256       .  A
C486        O487   1.263   1_655  A
C486       C1786   1.484       .  S
C488        O490   1.258       .  A
C488        O494   1.263       .  A
C488        C965   1.487       .  S
C492        C941   1.475       .  S
In495       O497   2.240       .  S
In495       O498   2.253       .  S
In495       O506   2.248       .  S
In495       O500   2.257       .  S
In495       O502   2.261       .  S
In495       O503   2.234   1_545  S
In495       O504   2.252   1_545  S
In495       O507   2.251   1_545  S
C496        O502   1.260       .  A
C496        O504   1.258   1_545  A
C496        C917   1.485       .  S
O497        C505   1.258       .  A
O498        C505   1.258       .  A
C499        O506   1.261       .  A
C499        O500   1.261       .  A
C499       C1546   1.488       .  S
C501        O503   1.261       .  A
C501        O507   1.264       .  A
C501       C1018   1.487       .  S
C505        C898   1.482       .  S
In508       O510   2.244   1_545  S
In508       O511   2.246   1_545  S
In508       O519   2.244       .  S
In508       O513   2.244       .  S
In508       O515   2.257       .  S
In508       O516   2.244       .  S
In508       O517   2.241       .  S
In508       O520   2.230       .  S
C509        O515   1.263       .  A
C509        O517   1.260       .  A
C509        C922   1.484       .  S
O510        C518   1.260       .  A
O511        C518   1.260       .  A
C512        O519   1.259       .  A
C512        O513   1.261       .  A
C512       C1709   1.481       .  S
C514        O516   1.263       .  A
C514        O520   1.260       .  A
C514        C869   1.481       .  S
C518        C970   1.478       .  S
In521       O523   2.254       .  S
In521       O524   2.231       .  S
In521       O532   2.240       .  S
In521       O526   2.256       .  S
In521       O528   2.266       .  S
In521       O529   2.239       .  S
In521       O530   2.236       .  S
In521       O533   2.239       .  S
C522        O528   1.263       .  A
C522        O530   1.259       .  A
C522        C845   1.492       .  S
O523        C531   1.262       .  A
O524        C531   1.260       .  A
C525        O532   1.258       .  A
C525        O526   1.262       .  A
C525       C1330   1.486       .  S
C527        O529   1.260       .  A
C527        O533   1.261       .  A
C527        C893   1.477       .  S
C531        C821   1.483       .  S
In534       O536   2.250       .  S
In534       O537   2.248       .  S
In534       O545   2.229       .  S
In534       O539   2.257       .  S
In534       O541   2.265       .  S
In534       O542   2.219       .  S
In534       O543   2.238       .  S
In534       O546   2.254       .  S
C535        O541   1.263       .  A
C535        O543   1.260       .  A
C535        C850   1.482       .  S
O536        C544   1.258       .  A
O537        C544   1.256       .  A
C538        O545   1.256       .  A
C538        O539   1.261       .  A
C538       C2117   1.485       .  S
C540        O542   1.261       .  A
C540        O546   1.265       .  A
C540        C802   1.486       .  S
C544        C874   1.483       .  S
In547       O549   2.237   1_455  S
In547       O550   2.244   1_455  S
In547       O558   2.247       .  S
In547       O552   2.251   1_455  S
In547       O554   2.252       .  S
In547       O555   2.244       .  S
In547       O556   2.241       .  S
In547       O559   2.247       .  S
C548        O554   1.263       .  A
C548        O556   1.261       .  A
C548        C778   1.489       .  S
O549        C557   1.260       .  A
O550        C557   1.263       .  A
C551        O558   1.258   1_655  A
C551        O552   1.261       .  A
C551       C1090   1.488       .  S
C553        O555   1.262       .  A
C553        O559   1.261       .  A
C553        C826   1.482       .  S
C557        C749   1.484       .  S
In560       O562   2.238       .  S
In560       O563   2.235       .  S
In560       O571   2.234       .  S
In560       O565   2.258       .  S
In560       O567   2.263       .  S
In560       O568   2.240   1_455  S
In560       O569   2.226       .  S
In560       O572   2.251   1_455  S
C561        O567   1.264       .  A
C561        O569   1.258       .  A
C561        C773   1.485       .  S
O562        C570   1.261       .  A
O563        C570   1.261       .  A
C564        O571   1.260       .  A
C564        O565   1.263       .  A
C564       C1810   1.488       .  S
C566        O568   1.259       .  A
C566        O572   1.261       .  A
C566        C725   1.484       .  S
C570        C797   1.479       .  S
In573       O575   2.250   1_545  S
In573       O576   2.248   1_545  S
In573       O584   2.245       .  S
In573       O578   2.246       .  S
In573       O580   2.264   1_545  S
In573       O581   2.255       .  S
In573       O582   2.226   1_545  S
In573       O585   2.236       .  S
C574        O580   1.263       .  A
C574        O582   1.260       .  A
C574        C701   1.484       .  S
O575        C583   1.262       .  A
O576        C583   1.261       .  A
C577        O584   1.261       .  A
C577        O578   1.261       .  A
C577       C1469   1.486       .  S
C579        O581   1.260       .  A
C579        O585   1.258       .  A
C579        C754   1.476       .  S
C583        C677   1.486       .  S
In586       O588   2.237       .  S
In586       O589   2.255       .  S
In586       O597   2.240       .  S
In586       O591   2.251       .  S
In586       O593   2.269       .  S
In586       O594   2.236   1_545  S
In586       O595   2.222       .  S
In586       O598   2.249   1_545  S
C587        O593   1.264       .  A
C587        O595   1.259       .  A
C587        C706   1.484       .  S
O588        C596   1.260       .  A
O589        C596   1.263       .  A
C590        O597   1.259       .  A
C590        O591   1.262       .  A
C590       C1661   1.486       .  S
C592        O594   1.262       .  A
C592        O598   1.261       .  A
C592        C653   1.486       .  S
C596        C730   1.487       .  S
In599       O601   2.235       .  S
In599       O602   2.253       .  S
In599       O610   2.240       .  S
In599       O604   2.270       .  S
In599       O606   2.263       .  S
In599       O607   2.248       .  S
In599       O608   2.242       .  S
In599       O611   2.261       .  S
C600        O606   1.260       .  A
C600        O608   1.258       .  A
C600        C629   1.483       .  S
O601        C609   1.262       .  A
O602        C609   1.264       .  A
C603        O610   1.255       .  A
C603        O604   1.260       .  A
C603       C1258   1.483       .  S
C605        O607   1.261       .  A
C605        O611   1.260       .  A
C605        C682   1.490       .  S
C609        C989   1.489       .  S
In612       O614   2.258       .  S
In612       O615   2.246       .  S
In612       O623   2.238       .  S
In612       O617   2.257       .  S
In612       O619   2.256       .  S
In612       O620   2.244       .  S
In612       O621   2.242       .  S
In612       O624   2.240       .  S
C613        O619   1.262       .  A
C613        O621   1.259       .  A
C613        C634   1.486       .  S
O614        C622   1.260       .  A
O615        C622   1.259       .  A
C616        O623   1.259       .  A
C616        O617   1.262       .  A
C616       C2050   1.488       .  S
C618        O620   1.262       .  A
C618        O624   1.260       .  A
C618        C946   1.482       .  S
C622        C658   1.484       .  S
C625        C626   1.411       .  A
C625        C630   1.401       .  A
C625        C639   1.444       .  S
C626        C631   1.488       .  S
C626        C627   1.403       .  A
C627        C628   1.402       .  A
C627        H646   1.085       .  S
C628        C629   1.414       .  A
C628        C640   1.445       .  S
C629        C630   1.405       .  A
C630        H645   1.085       .  S
C631        C632   1.403       .  A
C631        C636   1.410       .  A
C632        C633   1.400       .  A
C632        H647   1.085       .  S
C633        C634   1.416       .  A
C633        C637   1.445       .  S
C634        C635   1.407       .  A
C635        C636   1.402       .  A
C635        H648   1.085       .  S
C636        C638   1.443       .  S
C637        N641   1.158       .  T
C638        N642   1.157       .  T
C639        N644   1.157       .  T
C640        N643   1.157       .  T
C649        C650   1.409       .  A
C649        C654   1.398       .  A
C649        C663   1.444       .  S
C650        C655   1.485       .  S
C650        C651   1.403       .  A
C651        C652   1.403       .  A
C651        H670   1.085       .  S
C652        C653   1.417       .  A
C652        C664   1.444       .  S
C653        C654   1.405       .  A
C654        H669   1.085       .  S
C655        C656   1.402       .  A
C655        C660   1.410       .  A
C656        C657   1.400       .  A
C656        H671   1.085       .  S
C657        C658   1.415       .  A
C657        C661   1.444       .  S
C658        C659   1.406       .  A
C659        C660   1.402       .  A
C659        H672   1.084       .  S
C660        C662   1.444       .  S
C661        N665   1.157       .  T
C662        N666   1.157       .  T
C663        N668   1.157       .  T
C664        N667   1.157       .  T
C673        C674   1.411       .  A
C673        C678   1.401       .  A
C673        C687   1.444       .  S
C674        C679   1.490       .  S
C674        C675   1.404       .  A
C675        C676   1.403       .  A
C675        H694   1.084       .  S
C676        C677   1.415       .  A
C676        C688   1.444       .  S
C677        C678   1.405       .  A
C678        H693   1.084       .  S
C679        C680   1.404       .  A
C679        C684   1.410       .  A
C680        C681   1.406       .  A
C680        H695   1.084       .  S
C681        C682   1.418       .  A
C681        C685   1.444       .  S
C682        C683   1.406       .  A
C683        C684   1.399       .  A
C683        H696   1.085       .  S
C684        C686   1.444       .  S
C685        N689   1.157       .  T
C686        N690   1.157       .  T
C687        N692   1.157       .  T
C688        N691   1.157       .  T
C697        C698   1.412       .  A
C697        C702   1.398       .  A
C697        C711   1.445       .  S
C698        C703   1.490       .  S
C698        C699   1.406   1_565  A
C699        C700   1.406       .  A
C699        H718   1.081       .  S
C700        C701   1.415   1_545  A
C700        C712   1.444       .  S
C701        C702   1.405       .  A
C702        H717   1.080       .  S
C703        C704   1.401   1_565  A
C703        C708   1.412       .  A
C704        C705   1.396       .  A
C704        H719   1.086       .  S
C705        C706   1.414       .  A
C705        C709   1.445       .  S
C706        C707   1.406   1_545  A
C707        C708   1.406       .  A
C707        H720   1.086       .  S
C708        C710   1.443       .  S
C709        N713   1.157       .  T
C710        N714   1.157       .  T
C711        N716   1.157       .  T
C712        N715   1.157       .  T
C721        C722   1.412       .  A
C721        C726   1.400       .  A
C721        C735   1.444       .  S
C722        C727   1.490       .  S
C722        C723   1.403       .  A
C723        C724   1.402       .  A
C723        H742   1.085       .  S
C724        C725   1.416       .  A
C724        C736   1.444       .  S
C725        C726   1.405       .  A
C726        H741   1.085       .  S
C727        C728   1.403       .  A
C727        C732   1.412       .  A
C728        C729   1.400       .  A
C728        H743   1.085       .  S
C729        C730   1.416       .  A
C729        C733   1.444       .  S
C730        C731   1.406       .  A
C731        C732   1.403       .  A
C731        H744   1.084       .  S
C732        C734   1.444       .  S
C733        N737   1.157       .  T
C734        N738   1.157       .  T
C735        N740   1.157       .  T
C736        N739   1.157       .  T
C745        C746   1.409       .  A
C745        C750   1.400       .  A
C745        C759   1.444       .  S
C746        C751   1.484       .  S
C746        C747   1.402       .  A
C747        C748   1.399       .  A
C747        H766   1.085       .  S
C748        C749   1.417       .  A
C748        C760   1.444       .  S
C749        C750   1.407       .  A
C750        H765   1.084       .  S
C751        C752   1.404       .  A
C751        C756   1.410       .  A
C752        C753   1.401       .  A
C752        H767   1.085       .  S
C753        C754   1.412       .  A
C753        C757   1.444       .  S
C754        C755   1.404       .  A
C755        C756   1.398       .  A
C755        H768   1.085       .  S
C756        C758   1.444       .  S
C757        N761   1.157       .  T
C758        N762   1.157       .  T
C759        N764   1.157       .  T
C760        N763   1.157       .  T
C769        C770   1.410       .  A
C769        C774   1.403       .  A
C769        C783   1.443   1_455  S
C770        C775   1.487       .  S
C770        C771   1.402       .  A
C771        C772   1.400       .  A
C771        H790   1.085       .  S
C772        C773   1.417       .  A
C772        C784   1.445       .  S
C773        C774   1.406       .  A
C774        H789   1.085   1_455  S
C775        C776   1.402       .  A
C775        C780   1.410       .  A
C776        C777   1.404       .  A
C776        H791   1.085       .  S
C777        C778   1.417       .  A
C777        C781   1.443       .  S
C778        C779   1.407   1_455  A
C779        C780   1.400   1_655  A
C779        H792   1.085       .  S
C780        C782   1.445   1_455  S
C781        N785   1.157       .  T
C782        N786   1.157       .  T
C783        N788   1.157       .  T
C784        N787   1.157       .  T
C793        C794   1.413       .  A
C793        C798   1.400       .  A
C793        C807   1.444       .  S
C794        C799   1.489       .  S
C794        C795   1.404       .  A
C795        C796   1.397       .  A
C795        H814   1.085       .  S
C796        C797   1.413       .  A
C796        C808   1.444       .  S
C797        C798   1.405       .  A
C798        H813   1.085       .  S
C799        C800   1.402       .  A
C799        C804   1.412       .  A
C800        C801   1.397       .  A
C800        H815   1.085       .  S
C801        C802   1.417       .  A
C801        C805   1.445       .  S
C802        C803   1.406       .  A
C803        C804   1.402       .  A
C803        H816   1.084       .  S
C804        C806   1.445       .  S
C805        N809   1.157       .  T
C806        N810   1.157       .  T
C807        N812   1.157       .  T
C808        N811   1.157       .  T
C817        C818   1.411       .  A
C817        C822   1.397       .  A
C817        C831   1.445       .  S
C818        C823   1.487       .  S
C818        C819   1.404       .  A
C819        C820   1.404       .  A
C819        H838   1.085       .  S
C820        C821   1.415       .  A
C820        C832   1.444       .  S
C821        C822   1.405       .  A
C822        H837   1.085       .  S
C823        C824   1.403       .  A
C823        C828   1.411       .  A
C824        C825   1.402       .  A
C824        H839   1.085       .  S
C825        C826   1.415       .  A
C825        C829   1.444       .  S
C826        C827   1.404       .  A
C827        C828   1.400       .  A
C827        H840   1.085       .  S
C828        C830   1.444       .  S
C829        N833   1.157       .  T
C830        N834   1.157       .  T
C831        N836   1.157       .  T
C832        N835   1.157       .  T
C841        C842   1.411       .  A
C841        C846   1.405       .  A
C841        C855   1.443       .  S
C842        C847   1.491       .  S
C842        C843   1.402       .  A
C843        C844   1.399       .  A
C843        H862   1.085       .  S
C844        C845   1.418       .  A
C844        C856   1.444       .  S
C845        C846   1.408       .  A
C846        H861   1.084       .  S
C847        C848   1.405       .  A
C847        C852   1.413       .  A
C848        C849   1.401       .  A
C848        H863   1.085       .  S
C849        C850   1.411       .  A
C849        C853   1.444       .  S
C850        C851   1.405       .  A
C851        C852   1.405       .  A
C851        H864   1.085       .  S
C852        C854   1.444       .  S
C853        N857   1.157       .  T
C854        N858   1.157       .  T
C855        N860   1.157       .  T
C856        N859   1.157       .  T
C865        C866   1.406       .  A
C865        C870   1.398       .  A
C865        C879   1.444       .  S
C866        C871   1.477       .  S
C866        C867   1.400       .  A
C867        C868   1.400       .  A
C867        H886   1.085       .  S
C868        C869   1.417       .  A
C868        C880   1.445       .  S
C869        C870   1.405       .  A
C870        H885   1.085       .  S
C871        C872   1.399       .  A
C871        C876   1.407       .  A
C872        C873   1.402       .  A
C872        H887   1.085       .  S
C873        C874   1.418       .  A
C873        C877   1.444       .  S
C874        C875   1.406       .  A
C875        C876   1.397       .  A
C875        H888   1.084       .  S
C876        C878   1.444       .  S
C877        N881   1.157       .  T
C878        N882   1.157       .  T
C879        N884   1.157       .  T
C880        N883   1.158       .  T
C889        C890   1.411       .  A
C889        C894   1.396       .  A
C889        C903   1.445       .  S
C890        C895   1.482       .  S
C890        C891   1.403       .  A
C891        C892   1.401       .  A
C891        H910   1.085       .  S
C892        C893   1.415       .  A
C892        C904   1.444       .  S
C893        C894   1.403       .  A
C894        H909   1.085       .  S
C895        C896   1.402       .  A
C895        C900   1.410       .  A
C896        C897   1.400       .  A
C896        H911   1.085       .  S
C897        C898   1.416       .  A
C897        C901   1.444       .  S
C898        C899   1.405       .  A
C899        C900   1.397       .  A
C899        H912   1.085       .  S
C900        C902   1.445       .  S
C901        N905   1.157       .  T
C902        N906   1.157       .  T
C903        N908   1.157       .  T
C904        N907   1.157       .  T
C913        C914   1.408       .  A
C913        C918   1.403       .  A
C913        C927   1.443       .  S
C914        C919   1.484       .  S
C914        C915   1.402   1_545  A
C915        C916   1.401       .  A
C915        H934   1.085       .  S
C916        C917   1.415   1_565  A
C916        C928   1.444       .  S
C917        C918   1.407       .  A
C918        H933   1.085       .  S
C919        C920   1.401       .  A
C919        C924   1.409   1_545  A
C920        C921   1.401       .  A
C920        H935   1.085       .  S
C921        C922   1.415       .  A
C921        C925   1.445       .  S
C922        C923   1.406   1_545  A
C923        C924   1.402       .  A
C923        H936   1.085       .  S
C924        C926   1.443       .  S
C925        N929   1.157       .  T
C926        N930   1.157       .  T
C927        N932   1.157       .  T
C928        N931   1.157       .  T
C937        C938   1.409       .  A
C937        C942   1.397       .  A
C937        C951   1.444       .  S
C938        C943   1.479       .  S
C938        C939   1.402       .  A
C939        C940   1.401       .  A
C939        H958   1.085       .  S
C940        C941   1.414       .  A
C940        C952   1.444       .  S
C941        C942   1.403       .  A
C942        H957   1.085       .  S
C943        C944   1.400       .  A
C943        C948   1.408       .  A
C944        C945   1.399       .  A
C944        H959   1.085       .  S
C945        C946   1.417       .  A
C945        C949   1.444       .  S
C946        C947   1.406       .  A
C947        C948   1.399       .  A
C947        H960   1.085       .  S
C948        C950   1.444       .  S
C949        N953   1.157       .  T
C950        N954   1.157       .  T
C951        N956   1.157       .  T
C952        N955   1.157       .  T
C961        C962   1.408       .  A
C961        C966   1.400       .  A
C961        C975   1.444       .  S
C962        C967   1.484       .  S
C962        C963   1.401       .  A
C963        C964   1.400       .  A
C963        H982   1.085       .  S
C964        C965   1.419       .  A
C964        C976   1.445       .  S
C965        C966   1.407       .  A
C966        H981   1.085       .  S
C967        C968   1.403       .  A
C967        C972   1.409       .  A
C968        C969   1.399       .  A
C968        H983   1.085       .  S
C969        C970   1.413       .  A
C969        C973   1.445       .  S
C970        C971   1.405       .  A
C971        C972   1.401       .  A
C971        H984   1.085       .  S
C972        C974   1.444       .  S
C973        N977   1.157       .  T
C974        N978   1.157       .  T
C975        N980   1.157       .  T
C976        N979   1.158       .  T
C985        C986   1.408       .  A
C985        C990   1.398       .  A
C985        C999   1.445       .  S
C986        C991   1.483       .  S
C986        C987   1.401       .  A
C987        C988   1.404       .  A
C987       H1006   1.085       .  S
C988        C989   1.418       .  A
C988       C1000   1.443       .  S
C989        C990   1.407       .  A
C990       H1005   1.084       .  S
C991        C992   1.402       .  A
C991        C996   1.407       .  A
C992        C993   1.399       .  A
C992       H1007   1.085       .  S
C993        C994   1.417       .  A
C993        C997   1.444       .  S
C994        C995   1.407       .  A
C995        C996   1.401       .  A
C995       H1008   1.084       .  S
C996        C998   1.443       .  S
C997       N1001   1.157       .  T
C998       N1002   1.157       .  T
C999       N1004   1.157       .  T
C1000      N1003   1.157       .  T
C1009      C1010   1.413       .  A
C1009      C1014   1.402       .  A
C1009      C1023   1.444       .  S
C1010      C1015   1.491       .  S
C1010      C1011   1.404       .  A
C1011      C1012   1.401       .  A
C1011      H1030   1.085       .  S
C1012      C1013   1.413       .  A
C1012      C1024   1.444       .  S
C1013      C1014   1.404       .  A
C1014      H1029   1.085       .  S
C1015      C1016   1.404       .  A
C1015      C1020   1.412       .  A
C1016      C1017   1.404       .  A
C1016      H1031   1.085       .  S
C1017      C1018   1.415       .  A
C1017      C1021   1.443       .  S
C1018      C1019   1.406       .  A
C1019      C1020   1.399       .  A
C1019      H1032   1.085       .  S
C1020      C1022   1.445       .  S
C1021      N1025   1.157       .  T
C1022      N1026   1.157       .  T
C1023      N1028   1.157       .  T
C1024      N1027   1.157       .  T
C1033      C1034   1.409       .  A
C1033      C1038   1.404       .  A
C1033      C1047   1.443       .  S
C1034      C1039   1.486       .  S
C1034      C1035   1.401   1_455  A
C1035      C1036   1.401       .  A
C1035      H1054   1.085       .  S
C1036      C1037   1.418   1_655  A
C1036      C1048   1.444       .  S
C1037      C1038   1.408       .  A
C1038      H1053   1.084       .  S
C1039      C1040   1.401       .  A
C1039      C1044   1.409   1_455  A
C1040      C1041   1.401       .  A
C1040      H1055   1.085       .  S
C1041      C1042   1.417       .  A
C1041      C1045   1.444       .  S
C1042      C1043   1.407   1_455  A
C1043      C1044   1.403       .  A
C1043      H1056   1.085       .  S
C1044      C1046   1.443       .  S
C1045      N1049   1.157       .  T
C1046      N1050   1.157       .  T
C1047      N1052   1.157       .  T
C1048      N1051   1.157       .  T
C1057      C1058   1.409       .  A
C1057      C1062   1.403       .  A
C1057      C1071   1.444       .  S
C1058      C1063   1.490       .  S
C1058      C1059   1.403       .  A
C1059      C1060   1.403       .  A
C1059      H1078   1.085       .  S
C1060      C1061   1.419       .  A
C1060      C1072   1.444       .  S
C1061      C1062   1.408       .  A
C1062      H1077   1.084       .  S
C1063      C1064   1.403       .  A
C1063      C1068   1.412       .  A
C1064      C1065   1.402       .  A
C1064      H1079   1.085       .  S
C1065      C1066   1.417       .  A
C1065      C1069   1.445   1_655  S
C1066      C1067   1.406       .  A
C1067      C1068   1.402       .  A
C1067      H1080   1.084       .  S
C1068      C1070   1.444       .  S
C1069      N1073   1.158       .  T
C1070      N1074   1.157       .  T
C1071      N1076   1.157       .  T
C1072      N1075   1.157       .  T
C1081      C1082   1.413       .  A
C1081      C1086   1.401       .  A
C1081      C1095   1.444       .  S
C1082      C1087   1.492       .  S
C1082      C1083   1.404       .  A
C1083      C1084   1.401       .  A
C1083      H1102   1.085       .  S
C1084      C1085   1.414       .  A
C1084      C1096   1.444       .  S
C1085      C1086   1.405       .  A
C1086      H1101   1.085       .  S
C1087      C1088   1.404       .  A
C1087      C1092   1.412       .  A
C1088      C1089   1.402       .  A
C1088      H1103   1.085       .  S
C1089      C1090   1.417       .  A
C1089      C1093   1.444   1_655  S
C1090      C1091   1.405       .  A
C1091      C1092   1.400       .  A
C1091      H1104   1.085       .  S
C1092      C1094   1.444       .  S
C1093      N1097   1.157       .  T
C1094      N1098   1.157       .  T
C1095      N1100   1.157       .  T
C1096      N1099   1.157       .  T
C1105      C1106   1.411       .  A
C1105      C1110   1.404       .  A
C1105      C1119   1.444       .  S
C1106      C1111   1.491       .  S
C1106      C1107   1.403       .  A
C1107      C1108   1.404       .  A
C1107      H1126   1.085       .  S
C1108      C1109   1.417       .  A
C1108      C1120   1.444       .  S
C1109      C1110   1.408       .  A
C1110      H1125   1.084       .  S
C1111      C1112   1.402       .  A
C1111      C1116   1.411       .  A
C1112      C1113   1.402       .  A
C1112      H1127   1.085       .  S
C1113      C1114   1.417       .  A
C1113      C1117   1.445       .  S
C1114      C1115   1.406       .  A
C1115      C1116   1.405       .  A
C1115      H1128   1.084       .  S
C1116      C1118   1.443       .  S
C1117      N1121   1.158       .  T
C1118      N1122   1.157       .  T
C1119      N1124   1.157       .  T
C1120      N1123   1.157       .  T
C1129      C1130   1.410       .  A
C1129      C1134   1.401       .  A
C1129      C1143   1.444       .  S
C1130      C1135   1.486   1_455  S
C1130      C1131   1.401       .  A
C1131      C1132   1.401       .  A
C1131      H1150   1.085       .  S
C1132      C1133   1.417       .  A
C1132      C1144   1.444       .  S
C1133      C1134   1.407       .  A
C1134      H1149   1.084       .  S
C1135      C1136   1.401       .  A
C1135      C1140   1.411       .  A
C1136      C1137   1.402       .  A
C1136      H1151   1.085   1_655  S
C1137      C1138   1.415       .  A
C1137      C1141   1.443       .  S
C1138      C1139   1.406       .  A
C1139      C1140   1.402       .  A
C1139      H1152   1.085       .  S
C1140      C1142   1.445       .  S
C1141      N1145   1.157       .  T
C1142      N1146   1.157       .  T
C1143      N1148   1.157       .  T
C1144      N1147   1.157       .  T
C1153      C1154   1.414       .  A
C1153      C1158   1.404       .  A
C1153      C1167   1.444       .  S
C1154      C1159   1.497   1_655  S
C1154      C1155   1.404       .  A
C1155      C1156   1.403       .  A
C1155      H1174   1.085   1_655  S
C1156      C1157   1.417       .  A
C1156      C1168   1.444       .  S
C1157      C1158   1.406       .  A
C1158      H1173   1.084       .  S
C1159      C1160   1.403       .  A
C1159      C1164   1.414       .  A
C1160      C1161   1.403       .  A
C1160      H1175   1.085   1_455  S
C1161      C1162   1.418       .  A
C1161      C1165   1.444       .  S
C1162      C1163   1.406       .  A
C1163      C1164   1.406       .  A
C1163      H1176   1.085       .  S
C1164      C1166   1.444       .  S
C1165      N1169   1.157       .  T
C1166      N1170   1.157       .  T
C1167      N1172   1.157       .  T
C1168      N1171   1.157       .  T
C1177      C1178   1.408       .  A
C1177      C1182   1.404       .  A
C1177      C1191   1.444       .  S
C1178      C1183   1.486       .  S
C1178      C1179   1.401       .  A
C1179      C1180   1.401       .  A
C1179      H1198   1.085       .  S
C1180      C1181   1.417       .  A
C1180      C1192   1.444       .  S
C1181      C1182   1.409       .  A
C1182      H1197   1.084       .  S
C1183      C1184   1.403       .  A
C1183      C1188   1.407       .  A
C1184      C1185   1.403       .  A
C1184      H1199   1.085       .  S
C1185      C1186   1.417       .  A
C1185      C1189   1.444       .  S
C1186      C1187   1.409       .  A
C1187      C1188   1.401       .  A
C1187      H1200   1.084       .  S
C1188      C1190   1.444       .  S
C1189      N1193   1.157       .  T
C1190      N1194   1.157       .  T
C1191      N1196   1.157       .  T
C1192      N1195   1.157       .  T
C1201      C1202   1.413       .  A
C1201      C1206   1.403       .  A
C1201      C1215   1.444       .  S
C1202      C1207   1.491       .  S
C1202      C1203   1.402       .  A
C1203      C1204   1.401       .  A
C1203      H1222   1.085       .  S
C1204      C1205   1.416       .  A
C1204      C1216   1.444       .  S
C1205      C1206   1.406       .  A
C1206      H1221   1.084       .  S
C1207      C1208   1.403       .  A
C1207      C1212   1.411       .  A
C1208      C1209   1.402       .  A
C1208      H1223   1.085       .  S
C1209      C1210   1.416       .  A
C1209      C1213   1.443       .  S
C1210      C1211   1.409       .  A
C1211      C1212   1.405       .  A
C1211      H1224   1.084       .  S
C1212      C1214   1.444       .  S
C1213      N1217   1.157       .  T
C1214      N1218   1.157       .  T
C1215      N1220   1.157       .  T
C1216      N1219   1.157       .  T
C1225      C1226   1.411       .  A
C1225      C1230   1.403       .  A
C1225      C1239   1.444       .  S
C1226      C1231   1.492       .  S
C1226      C1227   1.403       .  A
C1227      C1228   1.401       .  A
C1227      H1246   1.085       .  S
C1228      C1229   1.416       .  A
C1228      C1240   1.444       .  S
C1229      C1230   1.407       .  A
C1230      H1245   1.084       .  S
C1231      C1232   1.403       .  A
C1231      C1236   1.411       .  A
C1232      C1233   1.403       .  A
C1232      H1247   1.085       .  S
C1233      C1234   1.417       .  A
C1233      C1237   1.444       .  S
C1234      C1235   1.408       .  A
C1235      C1236   1.402       .  A
C1235      H1248   1.084       .  S
C1236      C1238   1.444       .  S
C1237      N1241   1.157       .  T
C1238      N1242   1.157       .  T
C1239      N1244   1.157       .  T
C1240      N1243   1.157       .  T
C1249      C1250   1.411       .  A
C1249      C1254   1.402       .  A
C1249      C1263   1.444       .  S
C1250      C1255   1.486       .  S
C1250      C1251   1.401       .  A
C1251      C1252   1.398       .  A
C1251      H1270   1.085       .  S
C1252      C1253   1.415       .  A
C1252      C1264   1.444       .  S
C1253      C1254   1.407       .  A
C1254      H1269   1.084       .  S
C1255      C1256   1.402       .  A
C1255      C1260   1.412       .  A
C1256      C1257   1.400       .  A
C1256      H1271   1.085       .  S
C1257      C1258   1.416       .  A
C1257      C1261   1.445       .  S
C1258      C1259   1.404       .  A
C1259      C1260   1.401       .  A
C1259      H1272   1.085       .  S
C1260      C1262   1.444       .  S
C1261      N1265   1.157       .  T
C1262      N1266   1.157       .  T
C1263      N1268   1.157       .  T
C1264      N1267   1.157       .  T
C1273      C1274   1.412       .  A
C1273      C1278   1.402       .  A
C1273      C1287   1.444       .  S
C1274      C1279   1.492       .  S
C1274      C1275   1.403       .  A
C1275      C1276   1.401       .  A
C1275      H1294   1.085       .  S
C1276      C1277   1.417       .  A
C1276      C1288   1.444       .  S
C1277      C1278   1.408       .  A
C1278      H1293   1.084       .  S
C1279      C1280   1.404       .  A
C1279      C1284   1.413       .  A
C1280      C1281   1.400       .  A
C1280      H1295   1.085       .  S
C1281      C1282   1.417       .  A
C1281      C1285   1.445       .  S
C1282      C1283   1.405       .  A
C1283      C1284   1.401       .  A
C1283      H1296   1.084       .  S
C1284      C1286   1.444       .  S
C1285      N1289   1.157       .  T
C1286      N1290   1.157       .  T
C1287      N1292   1.157       .  T
C1288      N1291   1.157       .  T
C1297      C1298   1.410       .  A
C1297      C1302   1.402       .  A
C1297      C1311   1.443       .  S
C1298      C1303   1.486       .  S
C1298      C1299   1.403       .  A
C1299      C1300   1.401       .  A
C1299      H1318   1.085       .  S
C1300      C1301   1.413       .  A
C1300      C1312   1.445       .  S
C1301      C1302   1.404       .  A
C1302      H1317   1.085       .  S
C1303      C1304   1.400       .  A
C1303      C1308   1.410       .  A
C1304      C1305   1.401       .  A
C1304      H1319   1.085       .  S
C1305      C1306   1.418       .  A
C1305      C1309   1.444       .  S
C1306      C1307   1.408       .  A
C1307      C1308   1.404       .  A
C1307      H1320   1.084       .  S
C1308      C1310   1.444       .  S
C1309      N1313   1.157       .  T
C1310      N1314   1.157       .  T
C1311      N1316   1.157       .  T
C1312      N1315   1.157       .  T
C1321      C1322   1.410       .  A
C1321      C1326   1.402       .  A
C1321      C1335   1.444       .  S
C1322      C1327   1.485       .  S
C1322      C1323   1.402       .  A
C1323      C1324   1.400       .  A
C1323      H1342   1.085       .  S
C1324      C1325   1.415       .  A
C1324      C1336   1.445       .  S
C1325      C1326   1.406       .  A
C1326      H1341   1.085       .  S
C1327      C1328   1.402       .  A
C1327      C1332   1.410       .  A
C1328      C1329   1.401       .  A
C1328      H1343   1.085       .  S
C1329      C1330   1.417       .  A
C1329      C1333   1.444       .  S
C1330      C1331   1.406       .  A
C1331      C1332   1.401       .  A
C1331      H1344   1.085       .  S
C1332      C1334   1.444       .  S
C1333      N1337   1.157       .  T
C1334      N1338   1.157       .  T
C1335      N1340   1.157       .  T
C1336      N1339   1.157       .  T
C1345      C1346   1.408       .  A
C1345      C1350   1.400       .  A
C1345      C1359   1.444       .  S
C1346      C1351   1.484       .  S
C1346      C1347   1.401       .  A
C1347      C1348   1.402       .  A
C1347      H1366   1.085       .  S
C1348      C1349   1.418       .  A
C1348      C1360   1.444       .  S
C1349      C1350   1.407       .  A
C1350      H1365   1.085       .  S
C1351      C1352   1.401       .  A
C1351      C1356   1.408       .  A
C1352      C1353   1.402       .  A
C1352      H1367   1.085       .  S
C1353      C1354   1.418       .  A
C1353      C1357   1.444       .  S
C1354      C1355   1.407       .  A
C1355      C1356   1.400       .  A
C1355      H1368   1.084       .  S
C1356      C1358   1.444       .  S
C1357      N1361   1.157       .  T
C1358      N1362   1.157       .  T
C1359      N1364   1.157       .  T
C1360      N1363   1.157       .  T
C1369      C1370   1.411       .  A
C1369      C1374   1.399       .  A
C1369      C1383   1.444       .  S
C1370      C1375   1.486       .  S
C1370      C1371   1.402       .  A
C1371      C1372   1.400       .  A
C1371      H1390   1.085       .  S
C1372      C1373   1.417       .  A
C1372      C1384   1.444       .  S
C1373      C1374   1.405       .  A
C1374      H1389   1.085       .  S
C1375      C1376   1.402       .  A
C1375      C1380   1.411       .  A
C1376      C1377   1.401       .  A
C1376      H1391   1.085       .  S
C1377      C1378   1.417       .  A
C1377      C1381   1.444       .  S
C1378      C1379   1.406       .  A
C1379      C1380   1.398       .  A
C1379      H1392   1.085       .  S
C1380      C1382   1.445       .  S
C1381      N1385   1.157       .  T
C1382      N1386   1.157       .  T
C1383      N1388   1.157       .  T
C1384      N1387   1.157       .  T
C1393      C1394   1.407       .  A
C1393      C1398   1.399       .  A
C1393      C1407   1.444       .  S
C1394      C1399   1.478       .  S
C1394      C1395   1.400       .  A
C1395      C1396   1.400       .  A
C1395      H1414   1.085       .  S
C1396      C1397   1.415       .  A
C1396      C1408   1.443       .  S
C1397      C1398   1.407       .  A
C1398      H1413   1.084       .  S
C1399      C1400   1.400       .  A
C1399      C1404   1.407       .  A
C1400      C1401   1.399       .  A
C1400      H1415   1.085       .  S
C1401      C1402   1.416       .  A
C1401      C1405   1.444       .  S
C1402      C1403   1.407       .  A
C1403      C1404   1.400       .  A
C1403      H1416   1.085       .  S
C1404      C1406   1.443       .  S
C1405      N1409   1.157       .  T
C1406      N1410   1.157       .  T
C1407      N1412   1.157       .  T
C1408      N1411   1.157       .  T
C1417      C1418   1.409       .  A
C1417      C1422   1.397       .  A
C1417      C1431   1.444       .  S
C1418      C1423   1.483       .  S
C1418      C1419   1.402       .  A
C1419      C1420   1.403       .  A
C1419      H1438   1.085       .  S
C1420      C1421   1.416       .  A
C1420      C1432   1.444       .  S
C1421      C1422   1.406       .  A
C1422      H1437   1.085       .  S
C1423      C1424   1.400       .  A
C1423      C1428   1.409       .  A
C1424      C1425   1.401       .  A
C1424      H1439   1.085       .  S
C1425      C1426   1.417       .  A
C1425      C1429   1.443       .  S
C1426      C1427   1.408       .  A
C1427      C1428   1.400       .  A
C1427      H1440   1.084       .  S
C1428      C1430   1.445       .  S
C1429      N1433   1.157       .  T
C1430      N1434   1.157       .  T
C1431      N1436   1.157       .  T
C1432      N1435   1.157       .  T
C1441      C1442   1.409       .  A
C1441      C1446   1.399       .  A
C1441      C1455   1.444       .  S
C1442      C1447   1.484       .  S
C1442      C1443   1.402       .  A
C1443      C1444   1.400       .  A
C1443      H1462   1.085       .  S
C1444      C1445   1.416       .  A
C1444      C1456   1.444       .  S
C1445      C1446   1.406       .  A
C1446      H1461   1.084       .  S
C1447      C1448   1.403       .  A
C1447      C1452   1.409       .  A
C1448      C1449   1.404       .  A
C1448      H1463   1.085       .  S
C1449      C1450   1.417       .  A
C1449      C1453   1.443       .  S
C1450      C1451   1.406       .  A
C1451      C1452   1.397       .  A
C1451      H1464   1.085       .  S
C1452      C1454   1.445       .  S
C1453      N1457   1.157       .  T
C1454      N1458   1.157       .  T
C1455      N1460   1.157       .  T
C1456      N1459   1.157       .  T
C1465      C1466   1.409       .  A
C1465      C1470   1.400       .  A
C1465      C1479   1.444       .  S
C1466      C1471   1.484       .  S
C1466      C1467   1.401       .  A
C1467      C1468   1.401       .  A
C1467      H1486   1.085       .  S
C1468      C1469   1.417       .  A
C1468      C1480   1.444       .  S
C1469      C1470   1.406       .  A
C1470      H1485   1.084       .  S
C1471      C1472   1.402       .  A
C1471      C1476   1.410       .  A
C1472      C1473   1.402       .  A
C1472      H1487   1.085       .  S
C1473      C1474   1.415       .  A
C1473      C1477   1.444       .  S
C1474      C1475   1.405       .  A
C1475      C1476   1.400       .  A
C1475      H1488   1.085       .  S
C1476      C1478   1.444       .  S
C1477      N1481   1.157       .  T
C1478      N1482   1.157       .  T
C1479      N1484   1.157       .  T
C1480      N1483   1.157       .  T
C1489      C1490   1.410       .  A
C1489      C1494   1.402       .  A
C1489      C1503   1.444       .  S
C1490      C1495   1.484   1_545  S
C1490      C1491   1.400       .  A
C1491      C1492   1.400       .  A
C1491      H1510   1.085   1_545  S
C1492      C1493   1.418       .  A
C1492      C1504   1.444       .  S
C1493      C1494   1.407       .  A
C1494      H1509   1.084       .  S
C1495      C1496   1.402       .  A
C1495      C1500   1.409       .  A
C1496      C1497   1.401       .  A
C1496      H1511   1.085       .  S
C1497      C1498   1.415       .  A
C1497      C1501   1.444       .  S
C1498      C1499   1.406       .  A
C1499      C1500   1.401       .  A
C1499      H1512   1.085       .  S
C1500      C1502   1.444       .  S
C1501      N1505   1.157       .  T
C1502      N1506   1.157   1_565  T
C1503      N1508   1.157       .  T
C1504      N1507   1.157       .  T
C1513      C1514   1.409       .  A
C1513      C1518   1.404       .  A
C1513      C1527   1.443       .  S
C1514      C1519   1.487       .  S
C1514      C1515   1.401       .  A
C1515      C1516   1.402       .  A
C1515      H1534   1.085       .  S
C1516      C1517   1.418       .  A
C1516      C1528   1.444       .  S
C1517      C1518   1.408       .  A
C1518      H1533   1.084       .  S
C1519      C1520   1.402       .  A
C1519      C1524   1.409       .  A
C1520      C1521   1.404       .  A
C1520      H1535   1.085       .  S
C1521      C1522   1.418       .  A
C1521      C1525   1.444       .  S
C1522      C1523   1.407       .  A
C1523      C1524   1.402       .  A
C1523      H1536   1.085       .  S
C1524      C1526   1.443       .  S
C1525      N1529   1.157       .  T
C1526      N1530   1.157       .  T
C1527      N1532   1.157       .  T
C1528      N1531   1.157       .  T
C1537      C1538   1.413       .  A
C1537      C1542   1.407       .  A
C1537      C1551   1.444       .  S
C1538      C1543   1.494       .  S
C1538      C1539   1.402       .  A
C1539      C1540   1.399       .  A
C1539      H1558   1.085       .  S
C1540      C1541   1.417       .  A
C1540      C1552   1.445       .  S
C1541      C1542   1.408       .  A
C1542      H1557   1.084       .  S
C1543      C1544   1.404       .  A
C1543      C1548   1.413       .  A
C1544      C1545   1.404       .  A
C1544      H1559   1.085       .  S
C1545      C1546   1.416       .  A
C1545      C1549   1.444       .  S
C1546      C1547   1.405       .  A
C1547      C1548   1.401       .  A
C1547      H1560   1.085   1_545  S
C1548      C1550   1.444       .  S
C1549      N1553   1.157       .  T
C1550      N1554   1.157       .  T
C1551      N1556   1.157       .  T
C1552      N1555   1.157       .  T
C1561      C1562   1.411       .  A
C1561      C1566   1.399       .  A
C1561      C1575   1.444       .  S
C1562      C1567   1.487   1_545  S
C1562      C1563   1.403   1_545  A
C1563      C1564   1.403   1_565  A
C1563      H1582   1.085       .  S
C1564      C1565   1.415       .  A
C1564      C1576   1.444       .  S
C1565      C1566   1.404       .  A
C1566      H1581   1.085       .  S
C1567      C1568   1.402       .  A
C1567      C1572   1.410       .  A
C1568      C1569   1.401       .  A
C1568      H1583   1.085       .  S
C1569      C1570   1.416       .  A
C1569      C1573   1.444       .  S
C1570      C1571   1.406       .  A
C1571      C1572   1.401       .  A
C1571      H1584   1.085       .  S
C1572      C1574   1.444   1_565  S
C1573      N1577   1.157       .  T
C1574      N1578   1.157       .  T
C1575      N1580   1.157       .  T
C1576      N1579   1.157       .  T
C1585      C1586   1.410       .  A
C1585      C1590   1.404       .  A
C1585      C1599   1.443       .  S
C1586      C1591   1.490       .  S
C1586      C1587   1.403       .  A
C1587      C1588   1.403       .  A
C1587      H1606   1.085       .  S
C1588      C1589   1.417       .  A
C1588      C1600   1.444       .  S
C1589      C1590   1.407       .  A
C1590      H1605   1.084       .  S
C1591      C1592   1.403       .  A
C1591      C1596   1.410       .  A
C1592      C1593   1.404       .  A
C1592      H1607   1.085       .  S
C1593      C1594   1.417       .  A
C1593      C1597   1.444       .  S
C1594      C1595   1.407       .  A
C1595      C1596   1.401       .  A
C1595      H1608   1.085       .  S
C1596      C1598   1.443       .  S
C1597      N1601   1.157       .  T
C1598      N1602   1.157       .  T
C1599      N1604   1.157       .  T
C1600      N1603   1.157       .  T
C1609      C1610   1.410       .  A
C1609      C1614   1.403       .  A
C1609      C1623   1.445       .  S
C1610      C1615   1.484       .  S
C1610      C1611   1.400       .  A
C1611      C1612   1.401       .  A
C1611      H1630   1.085       .  S
C1612      C1613   1.416       .  A
C1612      C1624   1.444       .  S
C1613      C1614   1.407       .  A
C1614      H1629   1.084       .  S
C1615      C1616   1.402       .  A
C1615      C1620   1.408       .  A
C1616      C1617   1.402       .  A
C1616      H1631   1.085       .  S
C1617      C1618   1.417       .  A
C1617      C1621   1.444       .  S
C1618      C1619   1.407       .  A
C1619      C1620   1.400       .  A
C1619      H1632   1.084       .  S
C1620      C1622   1.443       .  S
C1621      N1625   1.157       .  T
C1622      N1626   1.157       .  T
C1623      N1628   1.157       .  T
C1624      N1627   1.157       .  T
C1633      C1634   1.411       .  A
C1633      C1638   1.402       .  A
C1633      C1647   1.444       .  S
C1634      C1639   1.487       .  S
C1634      C1635   1.402       .  A
C1635      C1636   1.400       .  A
C1635      H1654   1.085       .  S
C1636      C1637   1.415       .  A
C1636      C1648   1.444       .  S
C1637      C1638   1.405       .  A
C1638      H1653   1.084       .  S
C1639      C1640   1.402       .  A
C1639      C1644   1.409       .  A
C1640      C1641   1.402       .  A
C1640      H1655   1.085       .  S
C1641      C1642   1.418       .  A
C1641      C1645   1.443       .  S
C1642      C1643   1.408       .  A
C1643      C1644   1.402       .  A
C1643      H1656   1.084       .  S
C1644      C1646   1.444       .  S
C1645      N1649   1.157       .  T
C1646      N1650   1.157       .  T
C1647      N1652   1.157       .  T
C1648      N1651   1.157       .  T
C1657      C1658   1.411       .  A
C1657      C1662   1.400       .  A
C1657      C1671   1.444       .  S
C1658      C1663   1.489       .  S
C1658      C1659   1.403       .  A
C1659      C1660   1.401       .  A
C1659      H1678   1.085       .  S
C1660      C1661   1.417       .  A
C1660      C1672   1.444       .  S
C1661      C1662   1.405       .  A
C1662      H1677   1.085       .  S
C1663      C1664   1.404       .  A
C1663      C1668   1.413       .  A
C1664      C1665   1.400       .  A
C1664      H1679   1.085       .  S
C1665      C1666   1.413       .  A
C1665      C1669   1.444       .  S
C1666      C1667   1.405       .  A
C1667      C1668   1.401       .  A
C1667      H1680   1.085       .  S
C1668      C1670   1.445       .  S
C1669      N1673   1.157       .  T
C1670      N1674   1.157       .  T
C1671      N1676   1.157       .  T
C1672      N1675   1.157   1_545  T
C1681      C1682   1.409       .  A
C1681      C1686   1.402       .  A
C1681      C1695   1.444   1_545  S
C1682      C1687   1.489   1_546  S
C1682      C1683   1.403       .  A
C1683      C1684   1.405       .  A
C1683      H1702   1.085   1_556  S
C1684      C1685   1.417       .  A
C1684      C1696   1.444       .  S
C1685      C1686   1.407       .  A
C1686      H1701   1.085       .  S
C1687      C1688   1.402       .  A
C1687      C1692   1.408       .  A
C1688      C1689   1.405       .  A
C1688      H1703   1.085   1_554  S
C1689      C1690   1.418       .  A
C1689      C1693   1.444       .  S
C1690      C1691   1.409       .  A
C1691      C1692   1.402       .  A
C1691      H1704   1.084       .  S
C1692      C1694   1.444   1_565  S
C1693      N1697   1.157       .  T
C1694      N1698   1.157       .  T
C1695      N1700   1.157       .  T
C1696      N1699   1.157       .  T
C1705      C1706   1.408       .  A
C1705      C1710   1.398       .  A
C1705      C1719   1.444       .  S
C1706      C1711   1.481       .  S
C1706      C1707   1.402       .  A
C1707      C1708   1.401       .  A
C1707      H1726   1.085       .  S
C1708      C1709   1.415       .  A
C1708      C1720   1.444   1_545  S
C1709      C1710   1.405       .  A
C1710      H1725   1.085       .  S
C1711      C1712   1.400       .  A
C1711      C1716   1.408       .  A
C1712      C1713   1.399       .  A
C1712      H1727   1.085       .  S
C1713      C1714   1.416       .  A
C1713      C1717   1.444       .  S
C1714      C1715   1.408       .  A
C1715      C1716   1.401       .  A
C1715      H1728   1.084       .  S
C1716      C1718   1.444       .  S
C1717      N1721   1.157       .  T
C1718      N1722   1.157       .  T
C1719      N1724   1.157       .  T
C1720      N1723   1.157       .  T
C1729      C1730   1.408       .  A
C1729      C1734   1.399       .  A
C1729      C1743   1.444   1_565  S
C1730      C1735   1.485   1_564  S
C1730      C1731   1.403       .  A
C1731      C1732   1.405       .  A
C1731      H1750   1.085   1_554  S
C1732      C1733   1.416       .  A
C1732      C1744   1.444       .  S
C1733      C1734   1.406       .  A
C1734      H1749   1.085       .  S
C1735      C1736   1.400       .  A
C1735      C1740   1.408       .  A
C1736      C1737   1.403       .  A
C1736      H1751   1.085   1_545  S
C1737      C1738   1.419       .  A
C1737      C1741   1.444       .  S
C1738      C1739   1.407       .  A
C1739      C1740   1.402       .  A
C1739      H1752   1.084       .  S
C1740      C1742   1.444   1_556  S
C1741      N1745   1.157       .  T
C1742      N1746   1.157       .  T
C1743      N1748   1.157       .  T
C1744      N1747   1.157       .  T
C1753      C1754   1.412       .  A
C1753      C1758   1.400       .  A
C1753      C1767   1.444       .  S
C1754      C1759   1.487       .  S
C1754      C1755   1.402       .  A
C1755      C1756   1.401       .  A
C1755      H1774   1.085       .  S
C1756      C1757   1.415       .  A
C1756      C1768   1.444       .  S
C1757      C1758   1.404       .  A
C1758      H1773   1.085       .  S
C1759      C1760   1.403       .  A
C1759      C1764   1.409       .  A
C1760      C1761   1.404       .  A
C1760      H1775   1.085       .  S
C1761      C1762   1.418       .  A
C1761      C1765   1.444       .  S
C1762      C1763   1.406       .  A
C1763      C1764   1.399       .  A
C1763      H1776   1.085       .  S
C1764      C1766   1.444       .  S
C1765      N1769   1.158       .  T
C1766      N1770   1.157       .  T
C1767      N1772   1.157       .  T
C1768      N1771   1.157       .  T
C1777      C1778   1.410       .  A
C1777      C1782   1.402       .  A
C1777      C1791   1.444       .  S
C1778      C1783   1.488       .  S
C1778      C1779   1.402       .  A
C1779      C1780   1.402       .  A
C1779      H1798   1.085       .  S
C1780      C1781   1.418       .  A
C1780      C1792   1.444       .  S
C1781      C1782   1.407       .  A
C1782      H1797   1.084       .  S
C1783      C1784   1.401       .  A
C1783      C1788   1.412       .  A
C1784      C1785   1.399       .  A
C1784      H1799   1.085       .  S
C1785      C1786   1.416       .  A
C1785      C1789   1.445       .  S
C1786      C1787   1.405   1_655  A
C1787      C1788   1.405   1_455  A
C1787      H1800   1.085       .  S
C1788      C1790   1.443   1_655  S
C1789      N1793   1.157       .  T
C1790      N1794   1.157       .  T
C1791      N1796   1.157       .  T
C1792      N1795   1.157       .  T
C1801      C1802   1.410       .  A
C1801      C1806   1.399       .  A
C1801      C1815   1.444       .  S
C1802      C1807   1.485       .  S
C1802      C1803   1.402       .  A
C1803      C1804   1.402       .  A
C1803      H1822   1.085   1_655  S
C1804      C1805   1.415       .  A
C1804      C1816   1.444       .  S
C1805      C1806   1.405       .  A
C1806      H1821   1.085       .  S
C1807      C1808   1.402       .  A
C1807      C1812   1.408       .  A
C1808      C1809   1.402   1_655  A
C1808      H1823   1.085       .  S
C1809      C1810   1.417       .  A
C1809      C1813   1.443       .  S
C1810      C1811   1.408   1_455  A
C1811      C1812   1.399       .  A
C1811      H1824   1.084       .  S
C1812      C1814   1.444       .  S
C1813      N1817   1.157       .  T
C1814      N1818   1.157       .  T
C1815      N1820   1.157       .  T
C1816      N1819   1.157   1_655  T
C1825      C1826   1.409       .  A
C1825      C1830   1.403       .  A
C1825      C1839   1.444       .  S
C1826      C1831   1.488       .  S
C1826      C1827   1.401       .  A
C1827      C1828   1.403       .  A
C1827      H1846   1.085       .  S
C1828      C1829   1.419       .  A
C1828      C1840   1.444       .  S
C1829      C1830   1.408       .  A
C1830      H1845   1.084       .  S
C1831      C1832   1.402       .  A
C1831      C1836   1.409       .  A
C1832      C1833   1.404       .  A
C1832      H1847   1.085       .  S
C1833      C1834   1.417       .  A
C1833      C1837   1.443       .  S
C1834      C1835   1.408       .  A
C1835      C1836   1.403       .  A
C1835      H1848   1.084       .  S
C1836      C1838   1.444       .  S
C1837      N1841   1.157       .  T
C1838      N1842   1.157       .  T
C1839      N1844   1.157       .  T
C1840      N1843   1.157       .  T
C1849      C1850   1.412       .  A
C1849      C1854   1.401       .  A
C1849      C1863   1.444       .  S
C1850      C1855   1.491       .  S
C1850      C1851   1.403       .  A
C1851      C1852   1.401       .  A
C1851      H1870   1.085       .  S
C1852      C1853   1.416       .  A
C1852      C1864   1.444       .  S
C1853      C1854   1.406       .  A
C1854      H1869   1.084       .  S
C1855      C1856   1.403       .  A
C1855      C1860   1.412       .  A
C1856      C1857   1.400       .  A
C1856      H1871   1.085       .  S
C1857      C1858   1.415       .  A
C1857      C1861   1.444       .  S
C1858      C1859   1.407       .  A
C1859      C1860   1.404       .  A
C1859      H1872   1.085       .  S
C1860      C1862   1.444       .  S
C1861      N1865   1.157       .  T
C1862      N1866   1.157       .  T
C1863      N1868   1.157       .  T
C1864      N1867   1.157       .  T
C1873      C1874   1.411       .  A
C1873      C1878   1.401       .  A
C1873      C1887   1.444   1_556  S
C1874      C1879   1.491   1_656  S
C1874      C1875   1.404   1_655  A
C1875      C1876   1.403   1_455  A
C1875      H1894   1.085       .  S
C1876      C1877   1.415       .  A
C1876      C1888   1.444       .  S
C1877      C1878   1.405       .  A
C1878      H1893   1.085       .  S
C1879      C1880   1.402       .  A
C1879      C1884   1.411       .  A
C1880      C1881   1.402       .  A
C1880      H1895   1.085       .  S
C1881      C1882   1.418       .  A
C1881      C1885   1.444       .  S
C1882      C1883   1.408       .  A
C1883      C1884   1.404       .  A
C1883      H1896   1.084       .  S
C1884      C1886   1.444       .  S
C1885      N1889   1.157       .  T
C1886      N1890   1.157   1_554  T
C1887      N1892   1.157       .  T
C1888      N1891   1.157   1_655  T
C1897      C1898   1.412       .  A
C1897      C1902   1.403       .  A
C1897      C1911   1.444       .  S
C1898      C1903   1.493       .  S
C1898      C1899   1.403       .  A
C1899      C1900   1.403       .  A
C1899      H1918   1.085       .  S
C1900      C1901   1.418       .  A
C1900      C1912   1.444       .  S
C1901      C1902   1.406       .  A
C1902      H1917   1.084       .  S
C1903      C1904   1.404       .  A
C1903      C1908   1.412       .  A
C1904      C1905   1.402       .  A
C1904      H1919   1.085       .  S
C1905      C1906   1.415       .  A
C1905      C1909   1.444       .  S
C1906      C1907   1.407       .  A
C1907      C1908   1.404       .  A
C1907      H1920   1.084       .  S
C1908      C1910   1.444       .  S
C1909      N1913   1.157       .  T
C1910      N1914   1.157       .  T
C1911      N1916   1.157       .  T
C1912      N1915   1.157       .  T
C1921      C1922   1.406       .  A
C1921      C1926   1.399       .  A
C1921      C1935   1.445   1_655  S
C1922      C1927   1.480   1_656  S
C1922      C1923   1.400       .  A
C1923      C1924   1.403       .  A
C1923      H1942   1.085   1_556  S
C1924      C1925   1.418       .  A
C1924      C1936   1.443       .  S
C1925      C1926   1.408       .  A
C1926      H1941   1.084       .  S
C1927      C1928   1.400       .  A
C1927      C1932   1.407       .  A
C1928      C1929   1.402       .  A
C1928      H1943   1.085   1_455  S
C1929      C1930   1.419       .  A
C1929      C1933   1.444       .  S
C1930      C1931   1.406       .  A
C1931      C1932   1.399       .  A
C1931      H1944   1.084       .  S
C1932      C1934   1.444   1_554  S
C1933      N1937   1.158       .  T
C1934      N1938   1.157       .  T
C1935      N1940   1.157       .  T
C1936      N1939   1.157       .  T
C1945      C1946   1.411       .  A
C1945      C1950   1.399       .  A
C1945      C1959   1.445       .  S
C1946      C1951   1.487       .  S
C1946      C1947   1.403       .  A
C1947      C1948   1.403       .  A
C1947      H1966   1.085       .  S
C1948      C1949   1.417       .  A
C1948      C1960   1.444       .  S
C1949      C1950   1.406       .  A
C1950      H1965   1.084       .  S
C1951      C1952   1.401       .  A
C1951      C1956   1.410       .  A
C1952      C1953   1.401       .  A
C1952      H1967   1.085       .  S
C1953      C1954   1.418       .  A
C1953      C1957   1.444       .  S
C1954      C1955   1.407       .  A
C1955      C1956   1.401       .  A
C1955      H1968   1.085       .  S
C1956      C1958   1.444       .  S
C1957      N1961   1.157       .  T
C1958      N1962   1.157       .  T
C1959      N1964   1.157       .  T
C1960      N1963   1.157       .  T
C1969      C1970   1.414       .  A
C1969      C1974   1.402       .  A
C1969      C1983   1.444       .  S
C1970      C1975   1.500       .  S
C1970      C1971   1.406       .  A
C1971      C1972   1.406       .  A
C1971      H1990   1.084       .  S
C1972      C1973   1.416       .  A
C1972      C1984   1.444       .  S
C1973      C1974   1.407       .  A
C1974      H1989   1.084       .  S
C1975      C1976   1.405       .  A
C1975      C1980   1.414       .  A
C1976      C1977   1.402       .  A
C1976      H1991   1.085       .  S
C1977      C1978   1.416       .  A
C1977      C1981   1.444       .  S
C1978      C1979   1.407       .  A
C1979      C1980   1.406       .  A
C1979      H1992   1.085       .  S
C1980      C1982   1.444       .  S
C1981      N1985   1.157       .  T
C1982      N1986   1.157       .  T
C1983      N1988   1.157       .  T
C1984      N1987   1.157       .  T
C1993      C1994   1.410       .  A
C1993      C1998   1.402       .  A
C1993      C2007   1.444       .  S
C1994      C1999   1.488       .  S
C1994      C1995   1.403       .  A
C1995      C1996   1.401       .  A
C1995      H2014   1.085       .  S
C1996      C1997   1.417       .  A
C1996      C2008   1.444       .  S
C1997      C1998   1.406       .  A
C1998      H2013   1.085       .  S
C1999      C2000   1.403       .  A
C1999      C2004   1.410       .  A
C2000      C2001   1.401       .  A
C2000      H2015   1.085       .  S
C2001      C2002   1.416       .  A
C2001      C2005   1.444       .  S
C2002      C2003   1.406       .  A
C2003      C2004   1.400       .  A
C2003      H2016   1.084       .  S
C2004      C2006   1.444       .  S
C2005      N2009   1.157       .  T
C2006      N2010   1.157       .  T
C2007      N2012   1.157       .  T
C2008      N2011   1.157       .  T
C2017      C2018   1.409       .  A
C2017      C2022   1.401       .  A
C2017      C2031   1.444       .  S
C2018      C2023   1.486       .  S
C2018      C2019   1.403       .  A
C2019      C2020   1.403       .  A
C2019      H2038   1.085       .  S
C2020      C2021   1.417       .  A
C2020      C2032   1.444       .  S
C2021      C2022   1.406       .  A
C2022      H2037   1.085       .  S
C2023      C2024   1.403       .  A
C2023      C2028   1.408       .  A
C2024      C2025   1.402       .  A
C2024      H2039   1.085       .  S
C2025      C2026   1.417       .  A
C2025      C2029   1.444       .  S
C2026      C2027   1.407       .  A
C2027      C2028   1.400       .  A
C2027      H2040   1.085       .  S
C2028      C2030   1.443       .  S
C2029      N2033   1.157       .  T
C2030      N2034   1.157       .  T
C2031      N2036   1.157       .  T
C2032      N2035   1.157       .  T
C2041      C2042   1.408       .  A
C2041      C2046   1.404       .  A
C2041      C2055   1.443       .  S
C2042      C2047   1.483       .  S
C2042      C2043   1.399       .  A
C2043      C2044   1.399       .  A
C2043      H2062   1.085       .  S
C2044      C2045   1.418       .  A
C2044      C2056   1.444       .  S
C2045      C2046   1.408       .  A
C2046      H2061   1.084       .  S
C2047      C2048   1.400       .  A
C2047      C2052   1.408       .  A
C2048      C2049   1.400       .  A
C2048      H2063   1.085       .  S
C2049      C2050   1.418       .  A
C2049      C2053   1.444       .  S
C2050      C2051   1.408       .  A
C2051      C2052   1.402       .  A
C2051      H2064   1.084       .  S
C2052      C2054   1.444       .  S
C2053      N2057   1.157       .  T
C2054      N2058   1.157       .  T
C2055      N2060   1.157       .  T
C2056      N2059   1.157       .  T
C2065      C2066   1.410       .  A
C2065      C2070   1.402       .  A
C2065      C2079   1.444       .  S
C2066      C2071   1.487       .  S
C2066      C2067   1.402       .  A
C2067      C2068   1.399       .  A
C2067      H2086   1.085       .  S
C2068      C2069   1.415       .  A
C2068      C2080   1.444       .  S
C2069      C2070   1.407       .  A
C2070      H2085   1.085       .  S
C2071      C2072   1.403       .  A
C2071      C2076   1.410       .  A
C2072      C2073   1.401       .  A
C2072      H2087   1.085       .  S
C2073      C2074   1.417       .  A
C2073      C2077   1.444       .  S
C2074      C2075   1.405       .  A
C2075      C2076   1.399       .  A
C2075      H2088   1.085       .  S
C2076      C2078   1.444       .  S
C2077      N2081   1.157       .  T
C2078      N2082   1.157       .  T
C2079      N2084   1.157       .  T
C2080      N2083   1.157       .  T
C2089      C2090   1.407       .  A
C2089      C2094   1.399   1_556  A
C2089      C2103   1.445       .  S
C2090      C2095   1.481       .  S
C2090      C2091   1.400   1_556  A
C2091      C2092   1.404       .  A
C2091      H2110   1.084       .  S
C2092      C2093   1.419       .  A
C2092      C2104   1.444       .  S
C2093      C2094   1.408       .  A
C2094      H2109   1.084       .  S
C2095      C2096   1.401       .  A
C2095      C2100   1.408       .  A
C2096      C2097   1.401       .  A
C2096      H2111   1.085       .  S
C2097      C2098   1.416       .  A
C2097      C2101   1.444       .  S
C2098      C2099   1.406       .  A
C2099      C2100   1.400       .  A
C2099      H2112   1.084       .  S
C2100      C2102   1.444   1_556  S
C2101      N2105   1.157       .  T
C2102      N2106   1.157       .  T
C2103      N2108   1.157       .  T
C2104      N2107   1.157       .  T
C2113      C2114   1.410       .  A
C2113      C2118   1.401       .  A
C2113      C2127   1.444       .  S
C2114      C2119   1.484       .  S
C2114      C2115   1.400       .  A
C2115      C2116   1.398       .  A
C2115      H2134   1.085       .  S
C2116      C2117   1.418       .  A
C2116      C2128   1.444       .  S
C2117      C2118   1.407       .  A
C2118      H2133   1.084       .  S
C2119      C2120   1.400       .  A
C2119      C2124   1.411       .  A
C2120      C2121   1.400       .  A
C2120      H2135   1.085       .  S
C2121      C2122   1.417       .  A
C2121      C2125   1.444       .  S
C2122      C2123   1.405       .  A
C2123      C2124   1.400       .  A
C2123      H2136   1.085       .  S
C2124      C2126   1.444       .  S
C2125      N2129   1.157       .  T
C2126      N2130   1.157       .  T
C2127      N2132   1.157       .  T
C2128      N2131   1.157       .  T
C2137      C2138   1.412       .  A
C2137      C2142   1.403       .  A
C2137      C2151   1.444       .  S
C2138      C2143   1.491       .  S
C2138      C2139   1.402       .  A
C2139      C2140   1.403       .  A
C2139      H2158   1.085       .  S
C2140      C2141   1.417       .  A
C2140      C2152   1.444       .  S
C2141      C2142   1.406       .  A
C2142      H2157   1.084       .  S
C2143      C2144   1.403       .  A
C2143      C2148   1.412       .  A
C2144      C2145   1.403       .  A
C2144      H2159   1.085       .  S
C2145      C2146   1.416       .  A
C2145      C2149   1.444       .  S
C2146      C2147   1.406       .  A
C2147      C2148   1.402       .  A
C2147      H2160   1.084       .  S
C2148      C2150   1.444       .  S
C2149      N2153   1.157       .  T
C2150      N2154   1.157       .  T
C2151      N2156   1.157       .  T
C2152      N2155   1.157       .  T
C2161      C2162   1.411       .  A
C2161      C2166   1.402       .  A
C2161      C2175   1.444   1_554  S
C2162      C2167   1.490   1_554  S
C2162      C2163   1.402       .  A
C2163      C2164   1.401       .  A
C2163      H2182   1.085       .  S
C2164      C2165   1.418       .  A
C2164      C2176   1.444       .  S
C2165      C2166   1.407       .  A
C2166      H2181   1.084       .  S
C2167      C2168   1.402       .  A
C2167      C2172   1.410       .  A
C2168      C2169   1.401       .  A
C2168      H2183   1.085       .  S
C2169      C2170   1.418       .  A
C2169      C2173   1.444       .  S
C2170      C2171   1.408       .  A
C2171      C2172   1.403       .  A
C2171      H2184   1.084       .  S
C2172      C2174   1.444   1_556  S
C2173      N2177   1.157       .  T
C2174      N2178   1.157       .  T
C2175      N2180   1.157       .  T
C2176      N2179   1.157       .  T
C2185      C2186   1.409       .  A
C2185      C2190   1.401       .  A
C2185      C2199   1.444       .  S
C2186      C2191   1.481       .  S
C2186      C2187   1.398       .  A
C2187      C2188   1.400       .  A
C2187      H2206   1.085       .  S
C2188      C2189   1.419       .  A
C2188      C2200   1.444       .  S
C2189      C2190   1.407       .  A
C2190      H2205   1.084       .  S
C2191      C2192   1.402       .  A
C2191      C2196   1.407       .  A
C2192      C2193   1.404       .  A
C2192      H2207   1.085       .  S
C2193      C2194   1.416       .  A
C2193      C2197   1.444       .  S
C2194      C2195   1.406       .  A
C2195      C2196   1.397       .  A
C2195      H2208   1.085       .  S
C2196      C2198   1.445       .  S
C2197      N2201   1.157       .  T
C2198      N2202   1.157       .  T
C2199      N2204   1.157       .  T
C2200      N2203   1.157       .  T
C2209      C2210   1.410       .  A
C2209      C2214   1.405       .  A
C2209      C2223   1.444       .  S
C2210      C2215   1.489       .  S
C2210      C2211   1.401       .  A
C2211      C2212   1.401       .  A
C2211      H2230   1.085       .  S
C2212      C2213   1.417       .  A
C2212      C2224   1.444       .  S
C2213      C2214   1.408       .  A
C2214      H2229   1.084       .  S
C2215      C2216   1.402       .  A
C2215      C2220   1.410       .  A
C2216      C2217   1.405       .  A
C2216      H2231   1.085       .  S
C2217      C2218   1.417       .  A
C2217      C2221   1.443       .  S
C2218      C2219   1.406       .  A
C2219      C2220   1.401       .  A
C2219      H2232   1.084       .  S
C2220      C2222   1.444       .  S
C2221      N2225   1.157       .  T
C2222      N2226   1.157       .  T
C2223      N2228   1.157       .  T
C2224      N2227   1.157       .  T
C2233      C2234   1.407       .  A
C2233      C2238   1.404       .  A
C2233      C2247   1.443       .  S
C2234      C2239   1.479       .  S
C2234      C2235   1.399       .  A
C2235      C2236   1.397       .  A
C2235      H2254   1.085       .  S
C2236      C2237   1.416       .  A
C2236      C2248   1.444       .  S
C2237      C2238   1.409       .  A
C2238      H2253   1.084       .  S
C2239      C2240   1.399       .  A
C2239      C2244   1.407       .  A
C2240      C2241   1.398       .  A
C2240      H2255   1.085       .  S
C2241      C2242   1.417       .  A
C2241      C2245   1.444       .  S
C2242      C2243   1.409       .  A
C2243      C2244   1.402       .  A
C2243      H2256   1.084       .  S
C2244      C2246   1.443       .  S
C2245      N2249   1.157       .  T
C2246      N2250   1.157       .  T
C2247      N2252   1.157       .  T
C2248      N2251   1.157       .  T
C2257      C2258   1.409       .  A
C2257      C2262   1.397       .  A
C2257      C2271   1.444       .  S
C2258      C2263   1.483       .  S
C2258      C2259   1.402       .  A
C2259      C2260   1.404       .  A
C2259      H2278   1.085       .  S
C2260      C2261   1.417       .  A
C2260      C2272   1.444       .  S
C2261      C2262   1.405       .  A
C2262      H2277   1.085       .  S
C2263      C2264   1.400       .  A
C2263      C2268   1.409       .  A
C2264      C2265   1.397       .  A
C2264      H2279   1.085       .  S
C2265      C2266   1.416       .  A
C2265      C2269   1.445       .  S
C2266      C2267   1.407       .  A
C2267      C2268   1.404       .  A
C2267      H2280   1.084       .  S
C2268      C2270   1.443       .  S
C2269      N2273   1.157       .  T
C2270      N2274   1.157       .  T
C2271      N2276   1.157       .  T
C2272      N2275   1.157       .  T
C2281      C2282   1.413       .  A
C2281      C2286   1.400       .  A
C2281      C2295   1.444       .  S
C2282      C2287   1.490       .  S
C2282      C2283   1.404       .  A
C2283      C2284   1.400       .  A
C2283      H2302   1.085       .  S
C2284      C2285   1.415       .  A
C2284      C2296   1.444       .  S
C2285      C2286   1.404       .  A
C2286      H2301   1.085       .  S
C2287      C2288   1.403       .  A
C2287      C2292   1.412       .  A
C2288      C2289   1.401       .  A
C2288      H2303   1.085       .  S
C2289      C2290   1.416       .  A
C2289      C2293   1.444       .  S
C2290      C2291   1.407       .  A
C2291      C2292   1.401       .  A
C2291      H2304   1.084       .  S
C2292      C2294   1.445       .  S
C2293      N2297   1.157       .  T
C2294      N2298   1.157       .  T
C2295      N2300   1.157       .  T
C2296      N2299   1.157       .  T
C2305      C2306   1.409       .  A
C2305      C2310   1.405       .  A
C2305      C2319   1.443       .  S
C2306      C2311   1.489       .  S
C2306      C2307   1.403       .  A
C2307      C2308   1.402       .  A
C2307      H2326   1.085       .  S
C2308      C2309   1.416       .  A
C2308      C2320   1.444       .  S
C2309      C2310   1.408       .  A
C2310      H2325   1.085       .  S
C2311      C2312   1.404       .  A
C2311      C2316   1.408       .  A
C2312      C2313   1.407       .  A
C2312      H2327   1.084       .  S
C2313      C2314   1.418       .  A
C2313      C2317   1.444       .  S
C2314      C2315   1.407       .  A
C2315      C2316   1.398       .  A
C2315      H2328   1.085       .  S
C2316      C2318   1.444       .  S
C2317      N2321   1.158       .  T
C2318      N2322   1.157       .  T
C2319      N2324   1.157       .  T
C2320      N2323   1.157       .  T
C2329      C2330   1.412       .  A
C2329      C2334   1.400       .  A
C2329      C2343   1.445       .  S
C2330      C2335   1.489       .  S
C2330      C2331   1.404       .  A
C2331      C2332   1.402       .  A
C2331      H2350   1.085       .  S
C2332      C2333   1.414       .  A
C2332      C2344   1.444       .  S
C2333      C2334   1.405       .  A
C2334      H2349   1.085       .  S
C2335      C2336   1.401       .  A
C2335      C2340   1.412       .  A
C2336      C2337   1.399       .  A
C2336      H2351   1.085       .  S
C2337      C2338   1.417       .  A
C2337      C2341   1.444       .  S
C2338      C2339   1.407       .  A
C2339      C2340   1.403       .  A
C2339      H2352   1.084       .  S
C2340      C2342   1.444       .  S
C2341      N2345   1.157       .  T
C2342      N2346   1.157       .  T
C2343      N2348   1.157       .  T
C2344      N2347   1.157       .  T
C2353      C2354   1.411       .  A
C2353      C2358   1.403       .  A
C2353      C2367   1.444       .  S
C2354      C2359   1.484       .  S
C2354      C2355   1.401       .  A
C2355      C2356   1.397       .  A
C2355      H2374   1.085       .  S
C2356      C2357   1.415       .  A
C2356      C2368   1.444       .  S
C2357      C2358   1.407       .  A
C2358      H2373   1.084       .  S
C2359      C2360   1.404       .  A
C2359      C2364   1.409       .  A
C2360      C2361   1.403       .  A
C2360      H2375   1.085       .  S
C2361      C2362   1.417       .  A
C2361      C2365   1.444   1_565  S
C2362      C2363   1.405       .  A
C2363      C2364   1.394       .  A
C2363      H2376   1.085       .  S
C2364      C2366   1.445       .  S
C2365      N2369   1.157       .  T
C2366      N2370   1.157       .  T
C2367      N2372   1.157       .  T
C2368      N2371   1.157       .  T
C2377      C2378   1.410       .  A
C2377      C2382   1.401       .  A
C2377      C2391   1.444   1_545  S
C2378      C2383   1.484       .  S
C2378      C2379   1.402       .  A
C2379      C2380   1.397       .  A
C2379      H2398   1.085       .  S
C2380      C2381   1.414       .  A
C2380      C2392   1.445       .  S
C2381      C2382   1.406       .  A
C2382      H2397   1.084       .  S
C2383      C2384   1.403       .  A
C2383      C2388   1.409       .  A
C2384      C2385   1.404       .  A
C2384      H2399   1.085       .  S
C2385      C2386   1.416       .  A
C2385      C2389   1.443       .  S
C2386      C2387   1.407       .  A
C2387      C2388   1.395       .  A
C2387      H2400   1.085   1_545  S
C2388      C2390   1.445   1_545  S
C2389      N2393   1.157       .  T
C2390      N2394   1.157       .  T
C2391      N2396   1.157       .  T
C2392      N2395   1.157       .  T
C2401      C2402   1.410       .  A
C2401      C2406   1.403       .  A
C2401      C2415   1.444       .  S
C2402      C2407   1.488       .  S
C2402      C2403   1.403       .  A
C2403      C2404   1.398       .  A
C2403      H2422   1.085       .  S
C2404      C2405   1.414       .  A
C2404      C2416   1.444       .  S
C2405      C2406   1.407       .  A
C2406      H2421   1.084       .  S
C2407      C2408   1.404       .  A
C2407      C2412   1.411       .  A
C2408      C2409   1.402       .  A
C2408      H2423   1.085       .  S
C2409      C2410   1.416       .  A
C2409      C2413   1.444       .  S
C2410      C2411   1.405       .  A
C2411      C2412   1.400       .  A
C2411      H2424   1.085       .  S
C2412      C2414   1.444       .  S
C2413      N2417   1.157       .  T
C2414      N2418   1.157       .  T
C2415      N2420   1.157       .  T
C2416      N2419   1.157       .  T
C2425      C2426   1.407       .  A
C2425      C2430   1.401       .  A
C2425      C2439   1.444       .  S
C2426      C2431   1.479       .  S
C2426      C2427   1.399       .  A
C2427      C2428   1.399       .  A
C2427      H2446   1.085       .  S
C2428      C2429   1.418       .  A
C2428      C2440   1.444       .  S
C2429      C2430   1.407       .  A
C2430      H2445   1.084       .  S
C2431      C2432   1.400       .  A
C2431      C2436   1.409       .  A
C2432      C2433   1.401       .  A
C2432      H2447   1.085       .  S
C2433      C2434   1.415       .  A
C2433      C2437   1.444       .  S
C2434      C2435   1.404       .  A
C2435      C2436   1.398       .  A
C2435      H2448   1.085       .  S
C2436      C2438   1.444       .  S
C2437      N2441   1.157       .  T
C2438      N2442   1.157       .  T
C2439      N2444   1.157       .  T
C2440      N2443   1.157   1_455  T
C2449      C2450   1.411       .  A
C2449      C2454   1.400       .  A
C2449      C2463   1.445       .  S
C2450      C2455   1.489       .  S
C2450      C2451   1.403       .  A
C2451      C2452   1.403       .  A
C2451      H2470   1.085       .  S
C2452      C2453   1.415       .  A
C2452      C2464   1.443       .  S
C2453      C2454   1.406       .  A
C2454      H2469   1.085       .  S
C2455      C2456   1.403       .  A
C2455      C2460   1.411       .  A
C2456      C2457   1.401       .  A
C2456      H2471   1.085       .  S
C2457      C2458   1.415       .  A
C2457      C2461   1.444       .  S
C2458      C2459   1.405       .  A
C2459      C2460   1.401       .  A
C2459      H2472   1.085       .  S
C2460      C2462   1.444       .  S
C2461      N2465   1.157       .  T
C2462      N2466   1.157       .  T
C2463      N2468   1.157       .  T
C2464      N2467   1.157       .  T
C2473      C2474   1.410       .  A
C2473      C2478   1.401       .  A
C2473      C2487   1.444       .  S
C2474      C2479   1.486       .  S
C2474      C2475   1.401       .  A
C2475      C2476   1.402       .  A
C2475      H2494   1.085       .  S
C2476      C2477   1.417       .  A
C2476      C2488   1.444       .  S
C2477      C2478   1.407       .  A
C2478      H2493   1.084       .  S
C2479      C2480   1.402       .  A
C2479      C2484   1.410       .  A
C2480      C2481   1.402       .  A
C2480      H2495   1.085       .  S
C2481      C2482   1.416       .  A
C2481      C2485   1.444       .  S
C2482      C2483   1.406       .  A
C2483      C2484   1.401       .  A
C2483      H2496   1.085       .  S
C2484      C2486   1.444       .  S
C2485      N2489   1.157       .  T
C2486      N2490   1.157       .  T
C2487      N2492   1.157       .  T
C2488      N2491   1.157       .  T
C2497      C2498   1.412       .  A
C2497      C2502   1.400       .  A
C2497      C2511   1.444       .  S
C2498      C2503   1.493       .  S
C2498      C2499   1.405   1_655  A
C2499      C2500   1.403       .  A
C2499      H2518   1.085       .  S
C2500      C2501   1.414   1_455  A
C2500      C2512   1.444       .  S
C2501      C2502   1.405       .  A
C2502      H2517   1.085       .  S
C2503      C2504   1.403   1_655  A
C2503      C2508   1.412       .  A
C2504      C2505   1.400       .  A
C2504      H2519   1.085       .  S
C2505      C2506   1.417       .  A
C2505      C2509   1.445       .  S
C2506      C2507   1.407   1_455  A
C2507      C2508   1.404       .  A
C2507      H2520   1.085       .  S
C2508      C2510   1.443       .  S
C2509      N2513   1.157       .  T
C2510      N2514   1.157       .  T
C2511      N2516   1.157       .  T
C2512      N2515   1.157       .  T
C2521      C2522   1.408       .  A
C2521      C2526   1.399       .  A
C2521      C2535   1.444       .  S
C2522      C2527   1.480       .  S
C2522      C2523   1.400       .  A
C2523      C2524   1.400       .  A
C2523      H2542   1.085       .  S
C2524      C2525   1.417       .  A
C2524      C2536   1.444       .  S
C2525      C2526   1.406       .  A
C2526      H2541   1.085       .  S
C2527      C2528   1.400       .  A
C2527      C2532   1.408       .  A
C2528      C2529   1.400       .  A
C2528      H2543   1.085       .  S
C2529      C2530   1.417       .  A
C2529      C2533   1.444       .  S
C2530      C2531   1.407       .  A
C2531      C2532   1.400       .  A
C2531      H2544   1.084       .  S
C2532      C2534   1.444       .  S
C2533      N2537   1.157       .  T
C2534      N2538   1.157       .  T
C2535      N2540   1.157       .  T
C2536      N2539   1.157       .  T
C2545      C2546   1.409       .  A
C2545      C2550   1.401       .  A
C2545      C2559   1.444       .  S
C2546      C2551   1.486       .  S
C2546      C2547   1.402       .  A
C2547      C2548   1.401       .  A
C2547      H2566   1.085       .  S
C2548      C2549   1.416       .  A
C2548      C2560   1.443       .  S
C2549      C2550   1.406       .  A
C2550      H2565   1.085       .  S
C2551      C2552   1.403       .  A
C2551      C2556   1.410       .  A
C2552      C2553   1.402       .  A
C2552      H2567   1.085       .  S
C2553      C2554   1.416       .  A
C2553      C2557   1.444       .  S
C2554      C2555   1.406       .  A
C2555      C2556   1.400       .  A
C2555      H2568   1.085       .  S
C2556      C2558   1.444       .  S
C2557      N2561   1.157       .  T
C2558      N2562   1.157       .  T
C2559      N2564   1.157       .  T
C2560      N2563   1.157       .  T
C2569      C2570   1.409       .  A
C2569      C2574   1.399       .  A
C2569      C2583   1.444       .  S
C2570      C2575   1.489       .  S
C2570      C2571   1.404       .  A
C2571      C2572   1.403       .  A
C2571      H2590   1.085       .  S
C2572      C2573   1.417       .  A
C2572      C2584   1.444       .  S
C2573      C2574   1.407       .  A
C2574      H2589   1.085       .  S
C2575      C2576   1.403       .  A
C2575      C2580   1.409       .  A
C2576      C2577   1.402       .  A
C2576      H2591   1.085       .  S
C2577      C2578   1.418       .  A
C2577      C2581   1.444       .  S
C2578      C2579   1.407       .  A
C2579      C2580   1.402       .  A
C2579      H2592   1.084       .  S
C2580      C2582   1.444       .  S
C2581      N2585   1.157       .  T
C2582      N2586   1.157       .  T
C2583      N2588   1.157       .  T
C2584      N2587   1.157       .  T
C2593      C2594   1.411       .  A
C2593      C2598   1.402       .  A
C2593      C2607   1.445       .  S
C2594      C2599   1.490       .  S
C2594      C2595   1.403       .  A
C2595      C2596   1.404       .  A
C2595      H2614   1.085       .  S
C2596      C2597   1.415       .  A
C2596      C2608   1.443       .  S
C2597      C2598   1.407       .  A
C2598      H2613   1.085       .  S
C2599      C2600   1.403       .  A
C2599      C2604   1.410       .  A
C2600      C2601   1.403       .  A
C2600      H2615   1.085       .  S
C2601      C2602   1.418       .  A
C2601      C2605   1.444       .  S
C2602      C2603   1.406       .  A
C2603      C2604   1.401       .  A
C2603      H2616   1.085       .  S
C2604      C2606   1.443       .  S
C2605      N2609   1.158       .  T
C2606      N2610   1.157       .  T
C2607      N2612   1.157       .  T
C2608      N2611   1.157       .  T
C2617      C2618   1.408       .  A
C2617      C2622   1.396       .  A
C2617      C2631   1.446       .  S
C2618      C2623   1.481       .  S
C2618      C2619   1.401       .  A
C2619      C2620   1.403       .  A
C2619      H2638   1.085       .  S
C2620      C2621   1.417       .  A
C2620      C2632   1.443       .  S
C2621      C2622   1.406       .  A
C2622      H2637   1.084       .  S
C2623      C2624   1.401       .  A
C2623      C2628   1.409       .  A
C2624      C2625   1.399       .  A
C2624      H2639   1.085       .  S
C2625      C2626   1.415       .  A
C2625      C2629   1.444       .  S
C2626      C2627   1.407       .  A
C2627      C2628   1.401       .  A
C2627      H2640   1.085       .  S
C2628      C2630   1.444       .  S
C2629      N2633   1.157       .  T
C2630      N2634   1.157       .  T
C2631      N2636   1.157       .  T
C2632      N2635   1.157       .  T
C2641      C2642   1.412       .  A
C2641      C2646   1.404       .  A
C2641      C2655   1.444       .  S
C2642      C2647   1.492       .  S
C2642      C2643   1.403       .  A
C2643      C2644   1.398       .  A
C2643      H2662   1.085       .  S
C2644      C2645   1.416       .  A
C2644      C2656   1.444       .  S
C2645      C2646   1.408       .  A
C2646      H2661   1.084       .  S
C2647      C2648   1.405       .  A
C2647      C2652   1.412       .  A
C2648      C2649   1.404       .  A
C2648      H2663   1.084       .  S
C2649      C2650   1.418       .  A
C2649      C2653   1.444       .  S
C2650      C2651   1.404       .  A
C2651      C2652   1.397       .  A
C2651      H2664   1.085       .  S
C2652      C2654   1.444       .  S
C2653      N2657   1.158       .  T
C2654      N2658   1.157       .  T
C2655      N2660   1.157       .  T
C2656      N2659   1.157       .  T
C2665      C2666   1.413       .  A
C2665      C2670   1.401       .  A
C2665      C2679   1.445       .  S
C2666      C2671   1.493       .  S
C2666      C2667   1.404       .  A
C2667      C2668   1.401       .  A
C2667      H2686   1.085       .  S
C2668      C2669   1.416       .  A
C2668      C2680   1.444       .  S
C2669      C2670   1.406       .  A
C2670      H2685   1.084       .  S
C2671      C2672   1.404       .  A
C2671      C2676   1.413       .  A
C2672      C2673   1.400       .  A
C2672      H2687   1.085       .  S
C2673      C2674   1.417       .  A
C2673      C2677   1.445       .  S
C2674      C2675   1.405       .  A
C2675      C2676   1.401       .  A
C2675      H2688   1.084       .  S
C2676      C2678   1.444       .  S
C2677      N2681   1.158       .  T
C2678      N2682   1.157       .  T
C2679      N2684   1.157       .  T
C2680      N2683   1.157       .  T
C2689      C2690   1.409       .  A
C2689      C2694   1.400       .  A
C2689      C2703   1.444       .  S
C2690      C2695   1.483       .  S
C2690      C2691   1.401       .  A
C2691      C2692   1.401       .  A
C2691      H2710   1.085       .  S
C2692      C2693   1.414       .  A
C2692      C2704   1.442       .  S
C2693      C2694   1.405       .  A
C2694      H2709   1.085       .  S
C2695      C2696   1.400       .  A
C2695      C2700   1.408       .  A
C2696      C2697   1.400       .  A
C2696      H2711   1.085       .  S
C2697      C2698   1.419       .  A
C2697      C2701   1.444       .  S
C2698      C2699   1.408       .  A
C2699      C2700   1.402       .  A
C2699      H2712   1.084       .  S
C2700      C2702   1.444       .  S
C2701      N2705   1.157       .  T
C2702      N2706   1.157       .  T
C2703      N2708   1.157       .  T
C2704      N2707   1.157       .  T
C2713      C2714   1.408       .  A
C2713      C2718   1.402       .  A
C2713      C2727   1.444       .  S
C2714      C2719   1.479       .  S
C2714      C2715   1.400       .  A
C2715      C2716   1.398       .  A
C2715      H2734   1.085       .  S
C2716      C2717   1.414       .  A
C2716      C2728   1.445       .  S
C2717      C2718   1.405       .  A
C2718      H2733   1.084       .  S
C2719      C2720   1.400       .  A
C2719      C2724   1.408       .  A
C2720      C2721   1.400       .  A
C2720      H2735   1.085       .  S
C2721      C2722   1.415       .  A
C2721      C2725   1.444       .  S
C2722      C2723   1.406       .  A
C2723      C2724   1.400       .  A
C2723      H2736   1.084       .  S
C2724      C2726   1.444       .  S
C2725      N2729   1.157       .  T
C2726      N2730   1.157   1_565  T
C2727      N2732   1.157       .  T
C2728      N2731   1.157       .  T
C2737      C2738   1.408       .  A
C2737      C2742   1.396       .  A
C2737      C2751   1.444       .  S
C2738      C2743   1.481       .  S
C2738      C2739   1.402   1_565  A
C2739      C2740   1.405       .  A
C2739      H2758   1.084       .  S
C2740      C2741   1.416   1_545  A
C2740      C2752   1.444       .  S
C2741      C2742   1.405       .  A
C2742      H2757   1.085       .  S
C2743      C2744   1.402       .  A
C2743      C2748   1.408   1_565  A
C2744      C2745   1.404       .  A
C2744      H2759   1.085       .  S
C2745      C2746   1.416       .  A
C2745      C2749   1.443       .  S
C2746      C2747   1.405   1_565  A
C2747      C2748   1.397       .  A
C2747      H2760   1.085       .  S
C2748      C2750   1.444       .  S
C2749      N2753   1.157       .  T
C2750      N2754   1.157       .  T
C2751      N2756   1.157       .  T
C2752      N2755   1.157       .  T
C2761      C2762   1.414       .  A
C2761      C2766   1.400       .  A
C2761      C2775   1.444       .  S
C2762      C2767   1.496       .  S
C2762      C2763   1.405       .  A
C2763      C2764   1.403       .  A
C2763      H2782   1.084       .  S
C2764      C2765   1.417       .  A
C2764      C2776   1.444       .  S
C2765      C2766   1.405       .  A
C2766      H2781   1.084       .  S
C2767      C2768   1.404       .  A
C2767      C2772   1.414       .  A
C2768      C2769   1.398       .  A
C2768      H2783   1.085       .  S
C2769      C2770   1.415       .  A
C2769      C2773   1.444       .  S
C2770      C2771   1.407       .  A
C2771      C2772   1.405       .  A
C2771      H2784   1.084       .  S
C2772      C2774   1.444       .  S
C2773      N2777   1.157       .  T
C2774      N2778   1.157       .  T
C2775      N2780   1.157       .  T
C2776      N2779   1.157       .  T
C2785      C2786   1.407       .  A
C2785      C2790   1.399       .  A
C2785      C2799   1.443       .  S
C2786      C2791   1.481       .  S
C2786      C2787   1.402       .  A
C2787      C2788   1.401       .  A
C2787      H2806   1.085       .  S
C2788      C2789   1.417       .  A
C2788      C2800   1.444       .  S
C2789      C2790   1.407       .  A
C2790      H2805   1.085       .  S
C2791      C2792   1.401       .  A
C2791      C2796   1.407       .  A
C2792      C2793   1.401       .  A
C2792      H2807   1.085       .  S
C2793      C2794   1.417       .  A
C2793      C2797   1.444       .  S
C2794      C2795   1.406       .  A
C2795      C2796   1.399       .  A
C2795      H2808   1.085       .  S
C2796      C2798   1.444       .  S
C2797      N2801   1.157       .  T
C2798      N2802   1.157       .  T
C2799      N2804   1.157       .  T
C2800      N2803   1.157       .  T
C2809      C2810   1.411       .  A
C2809      C2814   1.401       .  A
C2809      C2823   1.444       .  S
C2810      C2815   1.489       .  S
C2810      C2811   1.402       .  A
C2811      C2812   1.401       .  A
C2811      H2830   1.085       .  S
C2812      C2813   1.418       .  A
C2812      C2824   1.444       .  S
C2813      C2814   1.406       .  A
C2814      H2829   1.084       .  S
C2815      C2816   1.403       .  A
C2815      C2820   1.411       .  A
C2816      C2817   1.401   1_455  A
C2816      H2831   1.085   1_455  S
C2817      C2818   1.414   1_655  A
C2817      C2821   1.444       .  S
C2818      C2819   1.406       .  A
C2819      C2820   1.401       .  A
C2819      H2832   1.084       .  S
C2820      C2822   1.444       .  S
C2821      N2825   1.157       .  T
C2822      N2826   1.157       .  T
C2823      N2828   1.157       .  T
C2824      N2827   1.157       .  T
C2833      C2834   1.409       .  A
C2833      C2838   1.401       .  A
C2833      C2847   1.444       .  S
C2834      C2839   1.488       .  S
C2834      C2835   1.403       .  A
C2835      C2836   1.404       .  A
C2835      H2854   1.085       .  S
C2836      C2837   1.416       .  A
C2836      C2848   1.443       .  S
C2837      C2838   1.408       .  A
C2838      H2853   1.084       .  S
C2839      C2840   1.401       .  A
C2839      C2844   1.410       .  A
C2840      C2841   1.403       .  A
C2840      H2855   1.085       .  S
C2841      C2842   1.418       .  A
C2841      C2845   1.443       .  S
C2842      C2843   1.408       .  A
C2843      C2844   1.402       .  A
C2843      H2856   1.084       .  S
C2844      C2846   1.444       .  S
C2845      N2849   1.157       .  T
C2846      N2850   1.157       .  T
C2847      N2852   1.157       .  T
C2848      N2851   1.157       .  T
C2857      C2858   1.410       .  A
C2857      C2862   1.399       .  A
C2857      C2871   1.444       .  S
C2858      C2863   1.486       .  S
C2858      C2859   1.403       .  A
C2859      C2860   1.403       .  A
C2859      H2878   1.085       .  S
C2860      C2861   1.414       .  A
C2860      C2872   1.444       .  S
C2861      C2862   1.404       .  A
C2862      H2877   1.085       .  S
C2863      C2864   1.401       .  A
C2863      C2868   1.409       .  A
C2864      C2865   1.399       .  A
C2864      H2879   1.085       .  S
C2865      C2866   1.417       .  A
C2865      C2869   1.444       .  S
C2866      C2867   1.408       .  A
C2867      C2868   1.403       .  A
C2867      H2880   1.084       .  S
C2868      C2870   1.444       .  S
C2869      N2873   1.157       .  T
C2870      N2874   1.157       .  T
C2871      N2876   1.157       .  T
C2872      N2875   1.157       .  T
C2881      C2882   1.412       .  A
C2881      C2886   1.402       .  A
C2881      C2895   1.444       .  S
C2882      C2887   1.493       .  S
C2882      C2883   1.403       .  A
C2883      C2884   1.405       .  A
C2883      H2902   1.085   1_455  S
C2884      C2885   1.419       .  A
C2884      C2896   1.444       .  S
C2885      C2886   1.406       .  A
C2886      H2901   1.084       .  S
C2887      C2888   1.403       .  A
C2887      C2892   1.411       .  A
C2888      C2889   1.403   1_455  A
C2888      H2903   1.085       .  S
C2889      C2890   1.417       .  A
C2889      C2893   1.443       .  S
C2890      C2891   1.409       .  A
C2891      C2892   1.405   1_655  A
C2891      H2904   1.084       .  S
C2892      C2894   1.444       .  S
C2893      N2897   1.157       .  T
C2894      N2898   1.157       .  T
C2895      N2900   1.157       .  T
C2896      N2899   1.158   1_455  T
C2905      C2906   1.407       .  A
C2905      C2910   1.403       .  A
C2905      C2919   1.443       .  S
C2906      C2911   1.483       .  S
C2906      C2907   1.401       .  A
C2907      C2908   1.400       .  A
C2907      H2926   1.085   1_655  S
C2908      C2909   1.417       .  A
C2908      C2920   1.444   1_655  S
C2909      C2910   1.408       .  A
C2910      H2925   1.084       .  S
C2911      C2912   1.400       .  A
C2911      C2916   1.408       .  A
C2912      C2913   1.400       .  A
C2912      H2927   1.085       .  S
C2913      C2914   1.416       .  A
C2913      C2917   1.445       .  S
C2914      C2915   1.406       .  A
C2915      C2916   1.403       .  A
C2915      H2928   1.084       .  S
C2916      C2918   1.443       .  S
C2917      N2921   1.157       .  T
C2918      N2922   1.157       .  T
C2919      N2924   1.157       .  T
C2920      N2923   1.157       .  T
