geometry optimzed in LAMMPS
_audit_creation_date              2020-11-30 
_audit_creation_method            'lammps2cif' 
_symmetry_space_group_name_H-M    'P1' 
_symmetry_Int_Tables_number       1 
_symmetry_cell_setting            triclinic 
loop_ 
_symmetry_equiv_pos_as_xyz 
  x,y,z 
_cell_length_a                    46.15530701 
_cell_length_b                    46.159415720527804 
_cell_length_c                    46.156212031257915 
_cell_angle_alpha                 90.00149680552884 
_cell_angle_beta                  90.00088514099805 
_cell_angle_gamma                 89.99972600453944 
loop_ 
_atom_site_label 
_atom_site_type_symbol 
_atom_site_fract_x 
_atom_site_fract_y 
_atom_site_fract_z 
_atom_site_charge 
O1          O  0.99952697  0.04673731  0.08253752    -0.85600
O2          O  0.99892228  0.04672853  0.41777905    -0.85700
O3          O  0.04637803  0.08195970  0.00046271    -0.87400
O4          O  0.45207652  0.08195953  0.99986641    -0.86200
O5          O  0.41684436  0.04673297  0.99985368    -0.85800
O6          O  0.08160840  0.04673121  0.00046042    -0.87100
O7          O  0.99893006  0.08195800  0.45300794    -0.85600
O8          O  0.99951874  0.08196431  0.04730675    -0.85200
Zr9        Zr  0.99922882  0.05808921  0.00015783     2.84300
O10         O  0.46988974  0.02891767  0.47082399    -1.07200
O11         O  0.02856421  0.02892075  0.02949870    -1.07900
C12         C  0.99959211  0.07333406  0.07390559     1.07500
C13         C  0.99885799  0.07332615  0.42640915     1.07500
C14         C  0.07297715  0.07332864  0.00052983     1.10500
C15         C  0.42547685  0.07332931  0.99979011     1.08200
H16         H  0.04068778  0.04103939  0.45869995     0.33800
O17         O  0.02861240  0.02896569  0.47077542    -1.28100
H18         H  0.45777909  0.04102993  0.04160522     0.33500
O19         O  0.46985747  0.02895274  0.02952794    -1.29800
O20         O  0.99951728  0.45243389  0.41778114    -0.85600
O21         O  0.99892732  0.45243715  0.08253611    -0.87100
O22         O  0.08160468  0.99928666  0.45301143    -0.85600
O23         O  0.41684519  0.99989117  0.45301283    -0.85700
O24         O  0.41684573  0.99928639  0.04730736    -0.85400
O25         O  0.08160396  0.99987762  0.04731461    -0.85200
O26         O  0.04637412  0.41720575  0.99985061    -0.85600
O27         O  0.45207503  0.41721212  0.00045139    -0.85100
O28         O  0.08160547  0.45243315  0.99987267    -0.86100
O29         O  0.41684487  0.45244107  0.00045592    -0.85300
O30         O  0.04637448  0.99927903  0.41777995    -0.85700
O31         O  0.04637263  0.99989157  0.08254441    -0.85400
O32         O  0.45207673  0.99929562  0.08253803    -0.85000
O33         O  0.45207620  0.99987553  0.41778268    -0.85500
O34         O  0.99952552  0.41720596  0.45301078    -0.85700
O35         O  0.99892619  0.41720810  0.04730637    -0.87100
Zr36       Zr  0.99922803  0.99958405  0.44165224     2.83100
Zr37       Zr  0.99922664  0.99958655  0.05866903     2.83500
Zr38       Zr  0.05773496  0.99958391  0.00016151     2.84100
Zr39       Zr  0.44071574  0.99958718  0.00016027     2.83400
Zr40       Zr  0.99922697  0.44107842  0.00015965     2.84200
O41         O  0.46989159  0.47025372  0.02949292    -1.07700
O42         O  0.02856362  0.47024731  0.47082364    -1.07200
C43         C  0.99959129  0.42583688  0.42641247     1.07500
C44         C  0.99885782  0.42583961  0.07390492     1.10100
C45         C  0.07297306  0.99921503  0.42641252     1.07700
C46         C  0.42547753  0.99995367  0.42641514     1.08000
C47         C  0.42547796  0.99922237  0.07390548     1.07600
C48         C  0.07297121  0.99995446  0.07391301     1.07200
C49         C  0.07297313  0.42583600  0.99979261     1.07600
C50         C  0.42547617  0.42584418  0.00052256     1.07100
H51         H  0.04067542  0.45813515  0.04161264     0.33800
O52         O  0.02859938  0.47021142  0.02953547    -1.28800
H53         H  0.45778212  0.45814592  0.45871932     0.33800
O54         O  0.46986169  0.47022349  0.47079789    -1.30100
O55         O  0.99951866  0.20243513  0.16777989    -0.85600
O56         O  0.99892976  0.20243559  0.33253568    -0.85700
O57         O  0.04637634  0.16720844  0.24984878    -0.87400
O58         O  0.45207657  0.16720902  0.25045095    -0.86200
O59         O  0.41684562  0.20243725  0.25045632    -0.85800
O60         O  0.08160650  0.20243697  0.24987082    -0.87100
O61         O  0.99892649  0.16720788  0.29730456    -0.85600
O62         O  0.99952567  0.16720595  0.20300842    -0.85200
Zr63       Zr  0.99922732  0.19107792  0.25015763     2.84300
O64         O  0.46989244  0.22025263  0.27949176    -1.07200
O65         O  0.02856376  0.22024833  0.22082274    -1.07900
C66         C  0.99959195  0.17583773  0.17641037     1.07500
C67         C  0.99885939  0.17583844  0.32390341     1.07500
C68         C  0.07297508  0.17583968  0.24979062     1.10500
C69         C  0.42547749  0.17584037  0.25052332     1.08200
H70         H  0.04067599  0.20813388  0.29161102     0.33800
O71         O  0.02859939  0.22021043  0.27953430    -1.28100
H72         H  0.45778300  0.20814630  0.20871736     0.33500
O73         O  0.46986214  0.22022352  0.22079610    -1.29800
O74         O  0.99953215  0.29673370  0.33254099    -0.85600
O75         O  0.99892583  0.29673271  0.16778213    -0.87100
O76         O  0.08160530  0.24987629  0.29731243    -0.85600
O77         O  0.41684817  0.24928375  0.29730914    -0.85700
O78         O  0.41684598  0.24989179  0.20301072    -0.85400
O79         O  0.08160828  0.24928974  0.20301569    -0.85200
O80         O  0.04637541  0.33196003  0.25046556    -0.85600
O81         O  0.45207547  0.33195980  0.24987329    -0.85100
O82         O  0.08160652  0.29673249  0.25046139    -0.86100
O83         O  0.41684449  0.29673198  0.24985442    -0.85300
O84         O  0.04637455  0.24988876  0.33254252    -0.85700
O85         O  0.04637879  0.24928007  0.16778366    -0.85400
O86         O  0.45207752  0.24987829  0.16778084    -0.85000
O87         O  0.45207941  0.24929423  0.33253980    -0.85500
O88         O  0.99952064  0.33196185  0.29731157    -0.85700
O89         O  0.99892755  0.33196019  0.20301322    -0.87100
Zr90       Zr  0.99922762  0.24958480  0.30866907     2.83100
Zr91       Zr  0.99922896  0.24958559  0.19165159     2.83500
Zr92       Zr  0.05773356  0.24958541  0.25016180     2.84100
Zr93       Zr  0.44071506  0.24958513  0.25015980     2.83400
Zr94       Zr  0.99922691  0.30808880  0.25016128     2.84200
O95         O  0.46988987  0.27891675  0.22082554    -1.07700
O96         O  0.02856429  0.27892155  0.27950095    -1.07200
C97         C  0.99959672  0.32333075  0.32391013     1.07500
C98         C  0.99885882  0.32332992  0.17641393     1.10100
C99         C  0.07297295  0.24995148  0.32391077     1.07700
C100        C  0.42548070  0.24922021  0.32390732     1.08000
C101        C  0.42547867  0.24995610  0.17641297     1.07600
C102        C  0.07297734  0.24921732  0.17641681     1.07200
C103        C  0.07297469  0.32332964  0.25053141     1.07600
C104        C  0.42547617  0.32332870  0.24979425     1.07100
H105        H  0.04068623  0.29104204  0.20870217     0.33800
O106        O  0.02861082  0.27896756  0.22077681    -1.28800
H107        H  0.45777781  0.29102680  0.29160741     0.33800
O108        O  0.46985607  0.27895020  0.27952939    -1.30100
O109        O  0.33160770  0.49929090  0.20301510    -0.85600
O110        O  0.16684245  0.49989087  0.20301476    -0.85700
O111        O  0.24952326  0.45243835  0.16777456    -0.87400
O112        O  0.24893298  0.04673121  0.16778018    -0.86200
O113        O  0.24893522  0.08195866  0.20301114    -0.85800
O114        O  0.24953043  0.41720984  0.20300377    -0.87100
O115        O  0.20207329  0.49987828  0.16778414    -0.85600
O116        O  0.29637700  0.49927993  0.16778420    -0.85200
Zr117      Zr  0.24922696  0.49958530  0.19165133     2.84300
O118        O  0.21988745  0.02891723  0.22082427    -1.07200
O119        O  0.27856192  0.47024883  0.22082301    -1.07900
C120        C  0.32297580  0.49921806  0.17641650     1.07500
C121        C  0.17547461  0.49995563  0.17641695     1.07500
C122        C  0.24959854  0.42584117  0.17640533     1.10500
C123        C  0.24886962  0.07332838  0.17641195     1.08200
H124        H  0.20778102  0.45814627  0.20871770     0.33800
O125        O  0.21986024  0.47022343  0.22079646    -1.28100
H126        H  0.29068551  0.04104025  0.20870141     0.33500
O127        O  0.27860975  0.02896619  0.22077604    -1.29800
O128        O  0.16684912  0.49928635  0.29731146    -0.85600
O129        O  0.33160748  0.49988005  0.29731090    -0.87100
O130        O  0.20207372  0.41721052  0.25044875    -0.85600
O131        O  0.20207611  0.08196097  0.24986947    -0.85700
O132        O  0.29637187  0.08196352  0.25046301    -0.85400
O133        O  0.29637449  0.41720661  0.24984758    -0.85200
O134        O  0.24894052  0.45243726  0.33253702    -0.85600
O135        O  0.24953491  0.04673325  0.33254031    -0.85100
O136        O  0.24893136  0.41720938  0.29730590    -0.86100
O137        O  0.24952264  0.08196051  0.29731003    -0.85300
O138        O  0.16684364  0.45243976  0.25045955    -0.85700
O139        O  0.33160435  0.45243562  0.24987065    -0.85400
O140        O  0.33160224  0.04673533  0.25046185    -0.85000
O141        O  0.16684498  0.04673344  0.24985612    -0.85500
O142        O  0.20208176  0.49929411  0.33254070    -0.85700
O143        O  0.29637719  0.49989314  0.33254127    -0.87100
Zr144      Zr  0.19071471  0.49958605  0.25016150     2.83100
Zr145      Zr  0.30773324  0.49958553  0.25016122     2.83500
Zr146      Zr  0.24922613  0.44107735  0.25015692     2.84100
Zr147      Zr  0.24922626  0.05808831  0.25015946     2.83400
Zr148      Zr  0.24922932  0.49958507  0.30866861     2.84200
O149        O  0.27856429  0.02892208  0.27949962    -1.07700
O150        O  0.21989272  0.47025279  0.27949235    -1.07200
C151        C  0.17548272  0.49922158  0.32390927     1.07500
C152        C  0.32297561  0.49995644  0.32390943     1.10100
C153        C  0.17547483  0.42584278  0.25052350     1.07700
C154        C  0.17547683  0.07333008  0.24979336     1.08000
C155        C  0.32297091  0.07333273  0.25053069     1.07600
C156        C  0.32297320  0.42583814  0.24978961     1.07200
C157        C  0.24886978  0.42584014  0.32390488     1.07600
C158        C  0.24959966  0.07332997  0.32390877     1.07100
H159        H  0.29067650  0.45813422  0.29160936     0.33800
O160        O  0.27859923  0.47021019  0.27953297    -1.28800
H161        H  0.20777912  0.04102771  0.29160795     0.33800
O162        O  0.21985674  0.02895077  0.27952985    -1.30100
O163        O  0.20207583  0.16721115  0.50045384    -0.86800
O164        O  0.20207278  0.33195739  0.49987191    -0.85700
O165        O  0.16684744  0.24928579  0.04730954    -0.87400
O166        O  0.16684173  0.24988712  0.45301453    -0.86200
O167        O  0.20207207  0.24987291  0.41778354    -0.85800
O168        O  0.20207979  0.24929407  0.08253890    -0.87100
O169        O  0.16684243  0.29672904  0.49985552    -0.85600
O170        O  0.16684409  0.20243863  0.50045967    -0.85200
Zr171      Zr  0.19071492  0.24958419  0.50016071     2.84300
O172        O  0.21988669  0.27891626  0.47082331    -1.07200
O173        O  0.21989200  0.22025140  0.02949331    -1.07900
C174        C  0.17547658  0.17584220  0.50052664     1.07500
C175        C  0.17547369  0.32332570  0.49979490     1.07500
C176        C  0.17548081  0.24922172  0.07390737     1.10500
C177        C  0.17547350  0.24995002  0.42641664     1.08200
H178        H  0.20777802  0.29102706  0.04160628     0.33800
O179        O  0.21985600  0.27895038  0.02952831    -1.28100
H180        H  0.20778205  0.20814332  0.45871932     0.33500
O181        O  0.21986136  0.22022149  0.47079741    -1.29800
O182        O  0.29637119  0.33196463  0.50046229    -0.85600
O183        O  0.29637816  0.16720956  0.49984940    -0.87100
O184        O  0.24953216  0.29673341  0.08253945    -0.85600
O185        O  0.24892954  0.29672985  0.41777958    -0.85700
O186        O  0.24951844  0.20243265  0.41778001    -0.85400
O187        O  0.24894061  0.20243840  0.08253774    -0.85200
O188        O  0.33160427  0.24988170  0.04731221    -0.85600
O189        O  0.33160511  0.24929317  0.45301168    -0.85100
O190        O  0.29637400  0.24989433  0.08254275    -0.86100
O191        O  0.29637423  0.24927685  0.41778083    -0.85300
O192        O  0.24952173  0.33196038  0.04730886    -0.85700
O193        O  0.24893585  0.16720936  0.04730803    -0.85400
O194        O  0.24952901  0.16720493  0.45301008    -0.85000
O195        O  0.24893220  0.33195862  0.45300939    -0.85500
O196        O  0.33160308  0.29673793  0.50045930    -0.85700
O197        O  0.33160716  0.20243945  0.49986917    -0.87100
Zr198      Zr  0.24922518  0.30808852  0.50015813     2.83100
Zr199      Zr  0.24922828  0.19107769  0.50015930     2.83500
Zr200      Zr  0.24922798  0.24958545  0.05866795     2.84100
Zr201      Zr  0.24922585  0.24958351  0.44165080     2.83400
Zr202      Zr  0.30773361  0.24958802  0.50016004     2.84200
O203        O  0.27856236  0.22024954  0.47082351    -1.07700
O204        O  0.27856301  0.27892274  0.02949862    -1.07200
C205        C  0.32297074  0.32333506  0.50052874     1.07500
C206        C  0.32297667  0.17584174  0.49978975     1.10100
C207        C  0.24959787  0.32333001  0.07390766     1.07700
C208        C  0.24886574  0.32332739  0.42641041     1.08000
C209        C  0.24959438  0.17583561  0.42641159     1.07600
C210        C  0.24887277  0.17584099  0.07390670     1.07200
C211        C  0.32297234  0.24995797  0.07391084     1.07600
C212        C  0.32297307  0.24921728  0.42641303     1.07100
H213        H  0.29067836  0.20813715  0.04160977     0.33800
O214        O  0.27860066  0.22021250  0.02953319    -1.28800
H215        H  0.29068363  0.29104074  0.45869920     0.33800
O216        O  0.27860849  0.27896653  0.47077434    -1.30100
C217        C  0.24885693  0.15386504  0.09588456    -0.17600
C218        C  0.24889425  0.13539900  0.11434979     0.06500
C219        C  0.24889489  0.11377339  0.13597103     0.08300
C220        C  0.24885681  0.09530567  0.15443478    -0.18400
C221        C  0.24962934  0.40386531  0.15442860    -0.17600
C222        C  0.24959670  0.38539832  0.13596552     0.06500
C223        C  0.24959527  0.36377295  0.11434720     0.08300
C224        C  0.24962707  0.34530587  0.09588425    -0.18400
C225        C  0.24885118  0.34530367  0.40443206    -0.17600
C226        C  0.24888817  0.36377026  0.38596709     0.06500
C227        C  0.24888778  0.38539591  0.36434580     0.08300
C228        C  0.24885194  0.40386311  0.34588169    -0.18400
C229        C  0.24962793  0.09530553  0.34588567    -0.17600
C230        C  0.24959399  0.11377101  0.36435021     0.06500
C231        C  0.24959244  0.13539376  0.38597106     0.08300
C232        C  0.24962381  0.15385937  0.40443542    -0.18400
C233        C  0.34494833  0.09530931  0.25055249    -0.17600
C234        C  0.36341336  0.11377537  0.25051805     0.06500
C235        C  0.38503515  0.13539913  0.25051840     0.08300
C236        C  0.40350009  0.15386492  0.25055044    -0.18400
C237        C  0.40349826  0.34530376  0.24976740    -0.17600
C238        C  0.38503416  0.36377026  0.24979902     0.06500
C239        C  0.36341416  0.38539517  0.24979789     0.08300
C240        C  0.34495006  0.40386176  0.24976417    -0.18400
C241        C  0.15349915  0.09530514  0.24976785    -0.17600
C242        C  0.13503502  0.11377146  0.24980117     0.06500
C243        C  0.11341515  0.13539624  0.24980081     0.08300
C244        C  0.09495147  0.15386309  0.24976642    -0.18400
C245        C  0.09495125  0.34530691  0.25055193    -0.17600
C246        C  0.11341369  0.36377544  0.25051641     0.06500
C247        C  0.13503251  0.38540193  0.25051657     0.08300
C248        C  0.15349672  0.40386830  0.25054943    -0.18400
C249        C  0.40350200  0.24998564  0.15443799    -0.17600
C250        C  0.38503595  0.24995352  0.13597383     0.06500
C251        C  0.36341325  0.24995246  0.11435288     0.08300
C252        C  0.34494795  0.24998475  0.09588770    -0.18400
C253        C  0.15350512  0.24919898  0.09588396    -0.17600
C254        C  0.13504141  0.24923306  0.11435106     0.06500
C255        C  0.11342043  0.24923317  0.13597536     0.08300
C256        C  0.09495492  0.24919751  0.15444103    -0.18400
C257        C  0.09494793  0.24997594  0.34588772    -0.17600
C258        C  0.11341131  0.24994254  0.36435447     0.06500
C259        C  0.13503131  0.24994373  0.38597764     0.08300
C260        C  0.15349629  0.24997718  0.40444260    -0.18400
C261        C  0.40350400  0.24919619  0.34588299    -0.17600
C262        C  0.38503849  0.24923008  0.36434837     0.06500
C263        C  0.36341562  0.24923112  0.38597090     0.08300
C264        C  0.34494978  0.24919661  0.40443629    -0.18400
C265        C  0.34494735  0.34531273  0.00054942    -0.17600
C266        C  0.36341162  0.36377975  0.50051394     0.06500
C267        C  0.38503297  0.38540403  0.50051417     0.08300
C268        C  0.40349819  0.40386949  0.00054746    -0.18400
C269        C  0.34495391  0.15386565  0.99976407    -0.17600
C270        C  0.36341742  0.13539844  0.99979685     0.06500
C271        C  0.38503633  0.11377238  0.99979630     0.08300
C272        C  0.40349959  0.09530503  0.99976337    -0.18400
C273        C  0.15349557  0.34529994  0.99977058    -0.17600
C274        C  0.13503095  0.36376571  0.49980392     0.06500
C275        C  0.11341139  0.38539069  0.49980319     0.08300
C276        C  0.09494858  0.40385837  0.99976865    -0.18400
C277        C  0.15349966  0.15386672  0.00055373    -0.17600
C278        C  0.13503606  0.13539985  0.00052062     0.06500
C279        C  0.11341721  0.11377347  0.00051858     0.08300
C280        C  0.09495431  0.09530540  0.00055198    -0.18400
C281        C  0.40350071  0.99998135  0.40444063    -0.17600
C282        C  0.38503550  0.49994859  0.38597581     0.06500
C283        C  0.36341485  0.49994851  0.36435300     0.08300
C284        C  0.34495102  0.99998232  0.34588643    -0.18400
C285        C  0.09495007  0.99919439  0.40443614    -0.17600
C286        C  0.11341694  0.99922947  0.38597183     0.06500
C287        C  0.13504112  0.99922986  0.36435072     0.08300
C288        C  0.15350690  0.99919715  0.34588568    -0.18400
C289        C  0.15349759  0.99998548  0.15444261    -0.17600
C290        C  0.13503199  0.99995320  0.13597818     0.06500
C291        C  0.11341051  0.99995098  0.11435628     0.08300
C292        C  0.09494614  0.99998191  0.09589033    -0.18400
C293        C  0.40350104  0.99919891  0.09588100    -0.17600
C294        C  0.38503660  0.99923325  0.11434745     0.06500
C295        C  0.36341625  0.99923413  0.13597247     0.08300
C296        C  0.34495223  0.99919871  0.15443963    -0.18400
C297        C  0.99883600  0.09530161  0.40443004    -0.17600
C298        C  0.99886901  0.11376762  0.38596451     0.06500
C299        C  0.49886819  0.13539328  0.36434329     0.08300
C300        C  0.99883553  0.15386102  0.34587976    -0.18400
C301        C  0.99961918  0.40386094  0.40443620    -0.17600
C302        C  0.99958738  0.38539518  0.38597205     0.06500
C303        C  0.49958931  0.36377185  0.36435178     0.08300
C304        C  0.99962387  0.34530604  0.34588753    -0.18400
C305        C  0.99883712  0.34530696  0.15443626    -0.17600
C306        C  0.99886935  0.36377316  0.13597084     0.06500
C307        C  0.99886722  0.38539723  0.11434788     0.08300
C308        C  0.99883376  0.40386319  0.09588244    -0.18400
C309        C  0.99961775  0.09530998  0.09588223    -0.17600
C310        C  0.99958424  0.11377537  0.11434687     0.06500
C311        C  0.49958510  0.13539754  0.13596830     0.08300
C312        C  0.99961895  0.15386242  0.15443335    -0.18400
O313        O  0.99952711  0.04673734  0.58253752    -0.85600
O314        O  0.99892226  0.04672856  0.91777909    -0.85700
O315        O  0.04637803  0.08195973  0.50046259    -0.87400
O316        O  0.45207651  0.08195944  0.49986654    -0.86200
O317        O  0.41684429  0.04673293  0.49985362    -0.85800
O318        O  0.08160839  0.04673123  0.50046031    -0.87100
O319        O  0.99893005  0.08195797  0.95300803    -0.85600
O320        O  0.99951870  0.08196430  0.54730671    -0.85200
Zr321      Zr  0.99922880  0.05808926  0.50015774     2.84300
O322        O  0.46988969  0.02891774  0.97082396    -1.07200
O323        O  0.02856415  0.02892079  0.52949862    -1.07900
C324        C  0.99959215  0.07333409  0.57390556     1.07500
C325        C  0.99885798  0.07332616  0.92640922     1.07500
C326        C  0.07297715  0.07332867  0.50052974     1.10500
C327        C  0.42547683  0.07332926  0.49979018     1.08200
H328        H  0.04068791  0.04103950  0.95870000     0.33800
O329        O  0.02861243  0.02896568  0.97077551    -1.28100
H330        H  0.45777912  0.04102989  0.54160502     0.33500
O331        O  0.46985747  0.02895276  0.52952788    -1.29800
O332        O  0.99951721  0.45243394  0.91778116    -0.85600
O333        O  0.99892730  0.45243715  0.58253610    -0.87100
O334        O  0.08160476  0.99928672  0.95301149    -0.85600
O335        O  0.41684516  0.99989126  0.95301288    -0.85700
O336        O  0.41684572  0.99928622  0.54730735    -0.85400
O337        O  0.08160404  0.99987768  0.54731457    -0.85200
O338        O  0.04637415  0.41720582  0.49985056    -0.85600
O339        O  0.45207505  0.41721210  0.50045130    -0.85100
O340        O  0.08160552  0.45243322  0.49987279    -0.86100
O341        O  0.41684490  0.45244106  0.50045581    -0.85300
O342        O  0.04637450  0.99927908  0.91778006    -0.85700
O343        O  0.04637266  0.99989162  0.58254433    -0.85400
O344        O  0.45207675  0.99929565  0.58253801    -0.85000
O345        O  0.45207621  0.99987543  0.91778277    -0.85500
O346        O  0.99952545  0.41720597  0.95301076    -0.85700
O347        O  0.99892616  0.41720809  0.54730638    -0.87100
Zr348      Zr  0.99922803  0.99958410  0.94165230     2.83100
Zr349      Zr  0.99922665  0.99958657  0.55866903     2.83500
Zr350      Zr  0.05773493  0.99958392  0.50016150     2.84100
Zr351      Zr  0.44071574  0.99958714  0.50016024     2.83400
Zr352      Zr  0.99922695  0.44107844  0.50015970     2.84200
O353        O  0.46989155  0.47025379  0.52949298    -1.07700
O354        O  0.02856370  0.47024731  0.97082360    -1.07200
C355        C  0.99959121  0.42583691  0.92641246     1.07500
C356        C  0.99885780  0.42583961  0.57390491     1.10100
C357        C  0.07297311  0.99921505  0.92641259     1.07700
C358        C  0.42547754  0.99995368  0.92641519     1.08000
C359        C  0.42547798  0.99922227  0.57390546     1.07600
C360        C  0.07297124  0.99995448  0.57391297     1.07200
C361        C  0.07297317  0.42583606  0.49979264     1.07600
C362        C  0.42547620  0.42584416  0.50052248     1.07100
H363        H  0.04067561  0.45813499  0.54161279     0.33800
O364        O  0.02859939  0.47021142  0.52953551    -1.28800
H365        H  0.45778229  0.45814605  0.95871949     0.33800
O366        O  0.46986170  0.47022347  0.97079791    -1.30100
O367        O  0.99951865  0.20243519  0.66777990    -0.85600
O368        O  0.99892983  0.20243560  0.83253565    -0.85700
O369        O  0.04637636  0.16720842  0.74984887    -0.87400
O370        O  0.45207653  0.16720907  0.75045097    -0.86200
O371        O  0.41684555  0.20243725  0.75045634    -0.85800
O372        O  0.08160652  0.20243696  0.74987072    -0.87100
O373        O  0.99892655  0.16720785  0.79730456    -0.85600
O374        O  0.99952566  0.16720597  0.70300839    -0.85200
Zr375      Zr  0.99922734  0.19107792  0.75015760     2.84300
O376        O  0.46989252  0.22025270  0.77949168    -1.07200
O377        O  0.02856374  0.22024839  0.72082275    -1.07900
C378        C  0.99959194  0.17583778  0.67641035     1.07500
C379        C  0.99885942  0.17583845  0.82390341     1.07500
C380        C  0.07297511  0.17583966  0.74979065     1.10500
C381        C  0.42547745  0.17584040  0.75052331     1.08200
H382        H  0.04067596  0.20813403  0.79161080     0.33800
O383        O  0.02859946  0.22021043  0.77953427    -1.28100
H384        H  0.45778288  0.20814623  0.70871709     0.33500
O385        O  0.46986215  0.22022355  0.72079603    -1.29800
O386        O  0.99953213  0.29673373  0.83254094    -0.85600
O387        O  0.99892578  0.29673277  0.66778213    -0.87100
O388        O  0.08160536  0.24987619  0.79731238    -0.85600
O389        O  0.41684824  0.24928366  0.79730917    -0.85700
O390        O  0.41684590  0.24989170  0.70301066    -0.85400
O391        O  0.08160840  0.24928963  0.70301564    -0.85200
O392        O  0.04637540  0.33196000  0.75046545    -0.85600
O393        O  0.45207544  0.33195979  0.74987318    -0.85100
O394        O  0.08160654  0.29673250  0.75046127    -0.86100
O395        O  0.41684450  0.29673194  0.74985429    -0.85300
O396        O  0.04637461  0.24988884  0.83254247    -0.85700
O397        O  0.04637880  0.24928014  0.66778371    -0.85400
O398        O  0.45207752  0.24987822  0.66778085    -0.85000
O399        O  0.45207948  0.24929416  0.83253984    -0.85500
O400        O  0.99952063  0.33196190  0.79731155    -0.85700
O401        O  0.99892770  0.33196021  0.70301326    -0.87100
Zr402      Zr  0.99922764  0.24958478  0.80866908     2.83100
Zr403      Zr  0.99922895  0.24958563  0.69165159     2.83500
Zr404      Zr  0.05773363  0.24958541  0.75016175     2.84100
Zr405      Zr  0.44071502  0.24958507  0.75015974     2.83400
Zr406      Zr  0.99922695  0.30808878  0.75016132     2.84200
O407        O  0.46988983  0.27891671  0.72082553    -1.07700
O408        O  0.02856437  0.27892151  0.77950099    -1.07200
C409        C  0.99959670  0.32333079  0.82391011     1.07500
C410        C  0.99885891  0.32332998  0.67641395     1.10100
C411        C  0.07297301  0.24995148  0.82391072     1.07700
C412        C  0.42548078  0.24922016  0.82390735     1.08000
C413        C  0.42547864  0.24995604  0.67641293     1.07600
C414        C  0.07297738  0.24921728  0.67641678     1.07200
C415        C  0.07297468  0.32332964  0.75053128     1.07600
C416        C  0.42547615  0.32332866  0.74979412     1.07100
H417        H  0.04068613  0.29104190  0.70870223     0.33800
O418        O  0.02861082  0.27896753  0.72077684    -1.28800
H419        H  0.45777777  0.29102660  0.79160740     0.33800
O420        O  0.46985597  0.27895013  0.77952943    -1.30100
O421        O  0.33160773  0.49929096  0.70301508    -0.85600
O422        O  0.16684251  0.49989077  0.70301471    -0.85700
O423        O  0.24952334  0.45243833  0.66777450    -0.87400
O424        O  0.24893311  0.04673126  0.66778026    -0.86200
O425        O  0.24893535  0.08195873  0.70301120    -0.85800
O426        O  0.24953051  0.41720988  0.70300376    -0.87100
O427        O  0.20207336  0.49987835  0.66778410    -0.85600
O428        O  0.29637700  0.49927998  0.66778421    -0.85200
Zr429      Zr  0.24922701  0.49958524  0.69165138     2.84300
O430        O  0.21988748  0.02891727  0.72082431    -1.07200
O431        O  0.27856200  0.47024882  0.72082309    -1.07900
C432        C  0.32297579  0.49921812  0.67641649     1.07500
C433        C  0.17547466  0.49995564  0.67641690     1.07500
C434        C  0.24959862  0.42584118  0.67640532     1.10500
C435        C  0.24886977  0.07332845  0.67641200     1.08200
H436        H  0.20778093  0.45814613  0.70871768     0.33800
O437        O  0.21986023  0.47022341  0.72079650    -1.28100
H438        H  0.29068566  0.04104025  0.70870152     0.33500
O439        O  0.27860986  0.02896618  0.72077610    -1.29800
O440        O  0.16684906  0.49928642  0.79731139    -0.85600
O441        O  0.33160748  0.49988010  0.79731095    -0.87100
O442        O  0.20207372  0.41721058  0.75044864    -0.85600
O443        O  0.20207614  0.08196089  0.74986936    -0.85700
O444        O  0.29637185  0.08196349  0.75046295    -0.85400
O445        O  0.29637447  0.41720665  0.74984747    -0.85200
O446        O  0.24894063  0.45243724  0.83253707    -0.85600
O447        O  0.24953499  0.04673319  0.83254040    -0.85100
O448        O  0.24893126  0.41720942  0.79730588    -0.86100
O449        O  0.24952273  0.08196039  0.79731008    -0.85300
O450        O  0.16684363  0.45243980  0.75045945    -0.85700
O451        O  0.33160439  0.45243561  0.74987054    -0.85400
O452        O  0.33160223  0.04673530  0.75046179    -0.85000
O453        O  0.16684494  0.04673343  0.74985601    -0.85500
O454        O  0.20208172  0.49929398  0.83254062    -0.85700
O455        O  0.29637721  0.49989318  0.83254133    -0.87100
Zr456      Zr  0.19071473  0.49958606  0.75016151     2.83100
Zr457      Zr  0.30773330  0.49958553  0.75016125     2.83500
Zr458      Zr  0.24922612  0.44107738  0.75015691     2.84100
Zr459      Zr  0.24922631  0.05808828  0.75015949     2.83400
Zr460      Zr  0.24922936  0.49958503  0.80866869     2.84200
O461        O  0.27856433  0.02892199  0.77949962    -1.07700
O462        O  0.21989277  0.47025282  0.77949239    -1.07200
C463        C  0.17548267  0.49922154  0.82390918     1.07500
C464        C  0.32297561  0.49995650  0.82390948     1.10100
C465        C  0.17547483  0.42584282  0.75052338     1.07700
C466        C  0.17547683  0.07333003  0.74979323     1.08000
C467        C  0.32297088  0.07333271  0.75053062     1.07600
C468        C  0.32297318  0.42583813  0.74978947     1.07200
C469        C  0.24886976  0.42584013  0.82390488     1.07600
C470        C  0.24959970  0.07332988  0.82390881     1.07100
H471        H  0.29067646  0.45813415  0.79160921     0.33800
O472        O  0.27859927  0.47021014  0.77953297    -1.28800
H473        H  0.20777910  0.04102777  0.79160802     0.33800
O474        O  0.21985675  0.02895082  0.77952994    -1.30100
O475        O  0.20207580  0.16721120  0.00045391    -0.86800
O476        O  0.20207289  0.33195742  0.99987200    -0.85700
O477        O  0.16684752  0.24928571  0.54730946    -0.87400
O478        O  0.16684177  0.24988717  0.95301451    -0.86200
O479        O  0.20207209  0.24987295  0.91778349    -0.85800
O480        O  0.20207984  0.24929399  0.58253885    -0.87100
O481        O  0.16684252  0.29672909  0.99985544    -0.85600
O482        O  0.16684398  0.20243861  0.00045974    -0.85200
Zr483      Zr  0.19071485  0.24958419  0.00016076     2.84300
O484        O  0.21988660  0.27891627  0.97082328    -1.07200
O485        O  0.21989201  0.22025139  0.52949334    -1.07900
C486        C  0.17547652  0.17584220  0.00052671     1.07500
C487        C  0.17547380  0.32332573  0.99979492     1.07500
C488        C  0.17548086  0.24922168  0.57390729     1.10500
C489        C  0.17547352  0.24995008  0.92641662     1.08200
H490        H  0.20777796  0.29102696  0.54160635     0.33800
O491        O  0.21985599  0.27895036  0.52952834    -1.28100
H492        H  0.20778203  0.20814340  0.95871943     0.33500
O493        O  0.21986128  0.22022147  0.97079745    -1.29800
O494        O  0.29637118  0.33196461  0.00046242    -0.85600
O495        O  0.29637814  0.16720954  0.99984931    -0.87100
O496        O  0.24953224  0.29673345  0.58253938    -0.85600
O497        O  0.24892961  0.29672987  0.91777957    -0.85700
O498        O  0.24951859  0.20243268  0.91777994    -0.85400
O499        O  0.24894073  0.20243842  0.58253767    -0.85200
O500        O  0.33160426  0.24988178  0.54731218    -0.85600
O501        O  0.33160507  0.24929305  0.95301168    -0.85100
O502        O  0.29637404  0.24989423  0.58254278    -0.86100
O503        O  0.29637420  0.24927691  0.91778083    -0.85300
O504        O  0.24952179  0.33196048  0.54730885    -0.85700
O505        O  0.24893576  0.16720932  0.54730803    -0.85400
O506        O  0.24952898  0.16720498  0.95301003    -0.85000
O507        O  0.24893228  0.33195864  0.95300938    -0.85500
O508        O  0.33160301  0.29673788  0.00045925    -0.85700
O509        O  0.33160716  0.20243942  0.99986927    -0.87100
Zr510      Zr  0.24922520  0.30808848  0.00015809     2.83100
Zr511      Zr  0.24922826  0.19107768  0.00015929     2.83500
Zr512      Zr  0.24922804  0.24958546  0.55866792     2.84100
Zr513      Zr  0.24922581  0.24958351  0.94165081     2.83400
Zr514      Zr  0.30773357  0.24958797  0.00016007     2.84200
O515        O  0.27856232  0.22024955  0.97082354    -1.07700
O516        O  0.27856305  0.27892279  0.52949859    -1.07200
C517        C  0.32297072  0.32333502  0.00052877     1.07500
C518        C  0.32297666  0.17584171  0.99978977     1.10100
C519        C  0.24959790  0.32333007  0.57390764     1.07700
C520        C  0.24886578  0.32332742  0.92641040     1.08000
C521        C  0.24959447  0.17583565  0.92641154     1.07600
C522        C  0.24887279  0.17584099  0.57390668     1.07200
C523        C  0.32297235  0.24995798  0.57391083     1.07600
C524        C  0.32297305  0.24921724  0.92641301     1.07100
H525        H  0.29067840  0.20813715  0.54160984     0.33800
O526        O  0.27860067  0.22021256  0.52953313    -1.28800
H527        H  0.29068361  0.29104070  0.95869922     0.33800
O528        O  0.27860847  0.27896648  0.97077435    -1.30100
C529        C  0.24885697  0.15386510  0.59588459    -0.17600
C530        C  0.24889422  0.13539908  0.61434984     0.06500
C531        C  0.24889486  0.11377346  0.63597107     0.08300
C532        C  0.24885690  0.09530571  0.65443480    -0.18400
C533        C  0.24962945  0.40386527  0.65442861    -0.17600
C534        C  0.24959685  0.38539831  0.63596554     0.06500
C535        C  0.24959536  0.36377294  0.61434722     0.08300
C536        C  0.24962705  0.34530588  0.59588427    -0.18400
C537        C  0.24885111  0.34530373  0.90443208    -0.17600
C538        C  0.24888809  0.36377033  0.88596712     0.06500
C539        C  0.24888770  0.38539590  0.86434577     0.08300
C540        C  0.24885187  0.40386307  0.84588163    -0.18400
C541        C  0.24962786  0.09530548  0.84588569    -0.17600
C542        C  0.24959390  0.11377100  0.86435017     0.06500
C543        C  0.24959242  0.13539380  0.88597100     0.08300
C544        C  0.24962391  0.15385939  0.90443538    -0.18400
C545        C  0.34494828  0.09530930  0.75055239    -0.17600
C546        C  0.36341336  0.11377534  0.75051792     0.06500
C547        C  0.38503516  0.13539910  0.75051826     0.08300
C548        C  0.40350007  0.15386492  0.75055032    -0.18400
C549        C  0.40349824  0.34530371  0.74976732    -0.17600
C550        C  0.38503418  0.36377025  0.74979902     0.06500
C551        C  0.36341411  0.38539510  0.74979781     0.08300
C552        C  0.34495001  0.40386170  0.74976403    -0.18400
C553        C  0.15349921  0.09530515  0.74976771    -0.17600
C554        C  0.13503506  0.11377146  0.74980103     0.06500
C555        C  0.11341518  0.13539622  0.74980074     0.08300
C556        C  0.09495152  0.15386310  0.74976646    -0.18400
C557        C  0.09495119  0.34530695  0.75055179    -0.17600
C558        C  0.11341362  0.36377552  0.75051628     0.06500
C559        C  0.13503248  0.38540199  0.75051644     0.08300
C560        C  0.15349673  0.40386832  0.75054929    -0.18400
C561        C  0.40350199  0.24998563  0.65443794    -0.17600
C562        C  0.38503587  0.24995347  0.63597385     0.06500
C563        C  0.36341320  0.24995248  0.61435290     0.08300
C564        C  0.34494799  0.24998481  0.59588765    -0.18400
C565        C  0.15350516  0.24919903  0.59588385    -0.17600
C566        C  0.13504143  0.24923308  0.61435096     0.06500
C567        C  0.11342039  0.24923306  0.63597522     0.08300
C568        C  0.09495489  0.24919739  0.65444091    -0.18400
C569        C  0.09494797  0.24997600  0.84588767    -0.17600
C570        C  0.11341133  0.24994261  0.86435448     0.06500
C571        C  0.13503126  0.24994379  0.88597770     0.08300
C572        C  0.15349627  0.24997725  0.90444262    -0.18400
C573        C  0.40350408  0.24919619  0.84588300    -0.17600
C574        C  0.38503854  0.24922998  0.86434835     0.06500
C575        C  0.36341565  0.24923095  0.88597087     0.08300
C576        C  0.34494978  0.24919650  0.90443625    -0.18400
C577        C  0.34494734  0.34531280  0.50054940    -0.17600
C578        C  0.36341159  0.36377975  0.00051402     0.06500
C579        C  0.38503294  0.38540404  0.00051425     0.08300
C580        C  0.40349820  0.40386950  0.50054744    -0.18400
C581        C  0.34495396  0.15386572  0.49976404    -0.17600
C582        C  0.36341751  0.13539854  0.49979688     0.06500
C583        C  0.38503638  0.11377244  0.49979632     0.08300
C584        C  0.40349962  0.09530506  0.49976345    -0.18400
C585        C  0.15349545  0.34529989  0.49977050    -0.17600
C586        C  0.13503108  0.36376578  0.99980402     0.06500
C587        C  0.11341148  0.38539074  0.99980328     0.08300
C588        C  0.09494859  0.40385842  0.49976861    -0.18400
C589        C  0.15349966  0.15386678  0.50055368    -0.17600
C590        C  0.13503610  0.13539987  0.50052066     0.06500
C591        C  0.11341726  0.11377348  0.50051868     0.08300
C592        C  0.09495433  0.09530542  0.50055202    -0.18400
C593        C  0.40350075  0.99998142  0.90444064    -0.17600
C594        C  0.38503554  0.49994860  0.88597579     0.06500
C595        C  0.36341488  0.49994858  0.86435301     0.08300
C596        C  0.34495103  0.99998219  0.84588647    -0.18400
C597        C  0.09495006  0.99919434  0.90443616    -0.17600
C598        C  0.11341685  0.99922948  0.88597176     0.06500
C599        C  0.13504101  0.99922992  0.86435061     0.08300
C600        C  0.15350682  0.99919717  0.84588560    -0.18400
C601        C  0.15349763  0.99998554  0.65444256    -0.17600
C602        C  0.13503199  0.99995327  0.63597817     0.06500
C603        C  0.11341045  0.99995099  0.61435634     0.08300
C604        C  0.09494610  0.99998185  0.59589037    -0.18400
C605        C  0.40350109  0.99919881  0.59588100    -0.17600
C606        C  0.38503662  0.99923320  0.61434744     0.06500
C607        C  0.36341620  0.99923408  0.63597237     0.08300
C608        C  0.34495219  0.99919872  0.65443955    -0.18400
C609        C  0.99883602  0.09530166  0.90443011    -0.17600
C610        C  0.99886906  0.11376763  0.88596454     0.06500
C611        C  0.49886817  0.13539334  0.86434334     0.08300
C612        C  0.99883546  0.15386110  0.84587982    -0.18400
C613        C  0.99961916  0.40386096  0.90443621    -0.17600
C614        C  0.99958748  0.38539512  0.88597214     0.06500
C615        C  0.49958928  0.36377184  0.86435181     0.08300
C616        C  0.99962388  0.34530607  0.84588752    -0.18400
C617        C  0.99883727  0.34530704  0.65443629    -0.17600
C618        C  0.99886945  0.36377321  0.63597083     0.06500
C619        C  0.99886718  0.38539728  0.61434788     0.08300
C620        C  0.99883371  0.40386321  0.59588244    -0.18400
C621        C  0.99961772  0.09531003  0.59588219    -0.17600
C622        C  0.99958421  0.11377543  0.61434682     0.06500
C623        C  0.49958512  0.13539759  0.63596827     0.08300
C624        C  0.99961897  0.15386250  0.65443331    -0.18400
O625        O  0.99952701  0.54673730  0.08253752    -0.85600
O626        O  0.99892228  0.54672852  0.41777902    -0.85700
O627        O  0.04637803  0.58195970  0.00046271    -0.87400
O628        O  0.45207649  0.58195946  0.99986642    -0.86200
O629        O  0.41684432  0.54673293  0.99985368    -0.85800
O630        O  0.08160840  0.54673121  0.00046043    -0.87100
O631        O  0.99893005  0.58195793  0.45300796    -0.85600
O632        O  0.99951878  0.58196431  0.04730676    -0.85200
Zr633      Zr  0.99922883  0.55808921  0.00015782     2.84300
O634        O  0.46988973  0.52891768  0.47082396    -1.07200
O635        O  0.02856422  0.52892075  0.02949870    -1.07900
C636        C  0.99959217  0.57333407  0.07390559     1.07500
C637        C  0.99885798  0.57332612  0.42640915     1.07500
C638        C  0.07297715  0.57332865  0.00052983     1.10500
C639        C  0.42547682  0.57332925  0.99979011     1.08200
H640        H  0.04068772  0.54103936  0.45870000     0.33800
O641        O  0.02861244  0.52896569  0.47077539    -1.28100
H642        H  0.45777908  0.54102994  0.04160522     0.33500
O643        O  0.46985747  0.52895275  0.02952795    -1.29800
O644        O  0.99951727  0.95243392  0.41778112    -0.85600
O645        O  0.99892736  0.95243719  0.08253611    -0.87100
O646        O  0.08160467  0.49928662  0.45301146    -0.85600
O647        O  0.41684519  0.49989115  0.45301282    -0.85700
O648        O  0.41684574  0.49928634  0.04730736    -0.85400
O649        O  0.08160397  0.49987757  0.04731461    -0.85200
O650        O  0.04637411  0.91720579  0.99985061    -0.85600
O651        O  0.45207503  0.91721212  0.00045139    -0.85100
O652        O  0.08160547  0.95243319  0.99987267    -0.86100
O653        O  0.41684485  0.95244106  0.00045591    -0.85300
O654        O  0.04637449  0.49927898  0.41777996    -0.85700
O655        O  0.04637263  0.49989152  0.08254441    -0.85400
O656        O  0.45207674  0.49929558  0.08253804    -0.85000
O657        O  0.45207620  0.49987550  0.41778267    -0.85500
O658        O  0.99952551  0.91720597  0.45301075    -0.85700
O659        O  0.99892623  0.91720814  0.04730637    -0.87100
Zr660      Zr  0.99922804  0.49958403  0.44165223     2.83100
Zr661      Zr  0.99922665  0.49958653  0.05866903     2.83500
Zr662      Zr  0.05773498  0.49958388  0.00016153     2.84100
Zr663      Zr  0.44071576  0.49958717  0.00016027     2.83400
Zr664      Zr  0.99922696  0.94107846  0.00015965     2.84200
O665        O  0.46989158  0.97025376  0.02949292    -1.07700
O666        O  0.02856361  0.97024733  0.47082366    -1.07200
C667        C  0.99959128  0.92583690  0.42641245     1.07500
C668        C  0.99885787  0.92583965  0.07390492     1.10100
C669        C  0.07297307  0.49921498  0.42641255     1.07700
C670        C  0.42547754  0.49995367  0.42641513     1.08000
C671        C  0.42547797  0.49922232  0.07390548     1.07600
C672        C  0.07297121  0.49995442  0.07391301     1.07200
C673        C  0.07297312  0.92583604  0.99979261     1.07600
C674        C  0.42547616  0.92584416  0.00052256     1.07100
H675        H  0.04067541  0.95813520  0.04161264     0.33800
O676        O  0.02859937  0.97021146  0.02953547    -1.28800
H677        H  0.45778231  0.95814599  0.45871935     0.33800
O678        O  0.46986176  0.97022347  0.47079789    -1.30100
O679        O  0.99951870  0.70243516  0.16777988    -0.85600
O680        O  0.99892975  0.70243559  0.33253565    -0.85700
O681        O  0.04637631  0.66720840  0.24984878    -0.87400
O682        O  0.45207656  0.66720906  0.25045095    -0.86200
O683        O  0.41684560  0.70243727  0.25045632    -0.85800
O684        O  0.08160647  0.70243693  0.24987082    -0.87100
O685        O  0.99892648  0.66720785  0.29730455    -0.85600
O686        O  0.99952571  0.66720599  0.20300842    -0.85200
Zr687      Zr  0.99922732  0.69107794  0.25015764     2.84300
O688        O  0.46989244  0.72025265  0.27949176    -1.07200
O689        O  0.02856375  0.72024835  0.22082274    -1.07900
C690        C  0.99959201  0.67583777  0.17641037     1.07500
C691        C  0.99885938  0.67583843  0.32390340     1.07500
C692        C  0.07297505  0.67583964  0.24979062     1.10500
C693        C  0.42547747  0.67584041  0.25052332     1.08200
H694        H  0.04067594  0.70813396  0.29161098     0.33800
O695        O  0.02859940  0.72021043  0.27953433    -1.28100
H696        H  0.45778300  0.70814632  0.20871736     0.33500
O697        O  0.46986214  0.72022353  0.22079609    -1.29800
O698        O  0.99953214  0.79673373  0.33254098    -0.85600
O699        O  0.99892582  0.79673275  0.16778213    -0.87100
O700        O  0.08160533  0.74987617  0.29731242    -0.85600
O701        O  0.41684817  0.74928361  0.29730914    -0.85700
O702        O  0.41684597  0.74989170  0.20301071    -0.85400
O703        O  0.08160828  0.74928959  0.20301569    -0.85200
O704        O  0.04637542  0.83195995  0.25046556    -0.85600
O705        O  0.45207545  0.83195979  0.24987329    -0.85100
O706        O  0.08160657  0.79673245  0.25046139    -0.86100
O707        O  0.41684450  0.79673195  0.24985442    -0.85300
O708        O  0.04637459  0.74988882  0.33254251    -0.85700
O709        O  0.04637878  0.74927992  0.16778366    -0.85400
O710        O  0.45207751  0.74987820  0.16778083    -0.85000
O711        O  0.45207940  0.74929410  0.33253980    -0.85500
O712        O  0.99952063  0.83196188  0.29731156    -0.85700
O713        O  0.99892754  0.83196022  0.20301322    -0.87100
Zr714      Zr  0.99922763  0.74958481  0.30866909     2.83100
Zr715      Zr  0.99922895  0.74958560  0.19165158     2.83500
Zr716      Zr  0.05773357  0.74958539  0.25016180     2.84100
Zr717      Zr  0.44071506  0.74958511  0.25015980     2.83400
Zr718      Zr  0.99922689  0.80808879  0.25016128     2.84200
O719        O  0.46988987  0.77891671  0.22082556    -1.07700
O720        O  0.02856426  0.77892152  0.27950093    -1.07200
C721        C  0.99959671  0.82333079  0.32391012     1.07500
C722        C  0.99885881  0.82332996  0.17641393     1.10100
C723        C  0.07297298  0.74995142  0.32391076     1.07700
C724        C  0.42548069  0.74922008  0.32390732     1.08000
C725        C  0.42547866  0.74995603  0.17641297     1.07600
C726        C  0.07297734  0.74921714  0.17641681     1.07200
C727        C  0.07297471  0.82332960  0.25053141     1.07600
C728        C  0.42547616  0.82332866  0.24979425     1.07100
H729        H  0.04068618  0.79104190  0.20870220     0.33800
O730        O  0.02861083  0.77896754  0.22077680    -1.28800
H731        H  0.45777784  0.79102665  0.29160737     0.33800
O732        O  0.46985604  0.77895018  0.27952940    -1.30100
O733        O  0.33160769  0.99929094  0.20301511    -0.85600
O734        O  0.16684244  0.99989092  0.20301476    -0.85700
O735        O  0.24952325  0.95243830  0.16777453    -0.87400
O736        O  0.24893297  0.54673127  0.16778017    -0.86200
O737        O  0.24893521  0.58195871  0.20301115    -0.85800
O738        O  0.24953043  0.91720983  0.20300377    -0.87100
O739        O  0.20207328  0.99987831  0.16778415    -0.85600
O740        O  0.29637699  0.99927996  0.16778420    -0.85200
Zr741      Zr  0.24922695  0.99958524  0.19165133     2.84300
O742        O  0.21988743  0.52891725  0.22082428    -1.07200
O743        O  0.27856193  0.97024882  0.22082303    -1.07900
C744        C  0.32297579  0.99921811  0.17641650     1.07500
C745        C  0.17547460  0.99995568  0.17641695     1.07500
C746        C  0.24959853  0.92584115  0.17640533     1.10500
C747        C  0.24886961  0.57332844  0.17641195     1.08200
H748        H  0.20778094  0.95814610  0.20871766     0.33800
O749        O  0.21986022  0.97022339  0.22079647    -1.28100
H750        H  0.29068553  0.54104029  0.20870142     0.33500
O751        O  0.27860977  0.52896622  0.22077604    -1.29800
O752        O  0.16684912  0.99928641  0.29731145    -0.85600
O753        O  0.33160747  0.99988009  0.29731090    -0.87100
O754        O  0.20207371  0.91721056  0.25044875    -0.85600
O755        O  0.20207609  0.58196091  0.24986947    -0.85700
O756        O  0.29637187  0.58196345  0.25046300    -0.85400
O757        O  0.29637448  0.91720663  0.24984757    -0.85200
O758        O  0.24894051  0.95243724  0.33253706    -0.85600
O759        O  0.24953488  0.54673321  0.33254036    -0.85100
O760        O  0.24893134  0.91720941  0.29730589    -0.86100
O761        O  0.24952279  0.58196044  0.29731006    -0.85300
O762        O  0.16684363  0.95243980  0.25045955    -0.85700
O763        O  0.33160438  0.95243561  0.24987065    -0.85400
O764        O  0.33160227  0.54673528  0.25046185    -0.85000
O765        O  0.16684494  0.54673340  0.24985612    -0.85500
O766        O  0.20208177  0.99929397  0.33254068    -0.85700
O767        O  0.29637718  0.99989317  0.33254127    -0.87100
Zr768      Zr  0.19071470  0.99958606  0.25016148     2.83100
Zr769      Zr  0.30773324  0.99958553  0.25016123     2.83500
Zr770      Zr  0.24922612  0.94107736  0.25015691     2.84100
Zr771      Zr  0.24922626  0.55808832  0.25015946     2.83400
Zr772      Zr  0.24922932  0.99958503  0.30866863     2.84200
O773        O  0.27856431  0.52892211  0.27949960    -1.07700
O774        O  0.21989271  0.97025280  0.27949233    -1.07200
C775        C  0.17548273  0.99922152  0.32390926     1.07500
C776        C  0.32297560  0.99995648  0.32390943     1.10100
C777        C  0.17547481  0.92584282  0.25052351     1.07700
C778        C  0.17547680  0.57333002  0.24979336     1.08000
C779        C  0.32297092  0.57333268  0.25053069     1.07600
C780        C  0.32297320  0.92583813  0.24978960     1.07200
C781        C  0.24886977  0.92584013  0.32390489     1.07600
C782        C  0.24959971  0.57332990  0.32390880     1.07100
H783        H  0.29067653  0.95813411  0.29160935     0.33800
O784        O  0.27859926  0.97021012  0.27953299    -1.28800
H785        H  0.20777909  0.54102775  0.29160793     0.33800
O786        O  0.21985672  0.52895081  0.27952984    -1.30100
O787        O  0.20207586  0.66721113  0.50045384    -0.86800
O788        O  0.20207279  0.83195737  0.49987191    -0.85700
O789        O  0.16684748  0.74928569  0.04730955    -0.87400
O790        O  0.16684172  0.74988711  0.45301453    -0.86200
O791        O  0.20207207  0.74987289  0.41778354    -0.85800
O792        O  0.20207982  0.74929397  0.08253891    -0.87100
O793        O  0.16684241  0.79672905  0.49985552    -0.85600
O794        O  0.16684413  0.70243862  0.50045967    -0.85200
Zr795      Zr  0.19071491  0.74958421  0.50016071     2.84300
O796        O  0.21988668  0.77891625  0.47082327    -1.07200
O797        O  0.21989197  0.72025136  0.02949333    -1.07900
C798        C  0.17547660  0.67584220  0.50052664     1.07500
C799        C  0.17547369  0.82332569  0.49979489     1.07500
C800        C  0.17548084  0.74922162  0.07390738     1.10500
C801        C  0.17547349  0.74994996  0.42641664     1.08200
H802        H  0.20777801  0.79102697  0.04160628     0.33800
O803        O  0.21985601  0.77895033  0.02952829    -1.28100
H804        H  0.20778207  0.70814339  0.45871938     0.33500
O805        O  0.21986132  0.72022148  0.47079740    -1.29800
O806        O  0.29637117  0.83196460  0.50046230    -0.85600
O807        O  0.29637813  0.66720954  0.49984940    -0.87100
O808        O  0.24953215  0.79673344  0.08253943    -0.85600
O809        O  0.24892951  0.79672986  0.41777960    -0.85700
O810        O  0.24951843  0.70243267  0.41777994    -0.85400
O811        O  0.24894061  0.70243840  0.08253770    -0.85200
O812        O  0.33160427  0.74988176  0.04731222    -0.85600
O813        O  0.33160510  0.74929306  0.45301168    -0.85100
O814        O  0.29637399  0.74989420  0.08254276    -0.86100
O815        O  0.29637423  0.74927673  0.41778083    -0.85300
O816        O  0.24952172  0.83196042  0.04730885    -0.85700
O817        O  0.24893585  0.66720933  0.04730803    -0.85400
O818        O  0.24952901  0.66720497  0.45301003    -0.85000
O819        O  0.24893235  0.83195863  0.45300942    -0.85500
O820        O  0.33160305  0.79673790  0.50045930    -0.85700
O821        O  0.33160719  0.70243938  0.49986917    -0.87100
Zr822      Zr  0.24922520  0.80808845  0.50015813     2.83100
Zr823      Zr  0.24922826  0.69107768  0.50015929     2.83500
Zr824      Zr  0.24922799  0.74958545  0.05866794     2.84100
Zr825      Zr  0.24922584  0.74958349  0.44165079     2.83400
Zr826      Zr  0.30773361  0.74958794  0.50016004     2.84200
O827        O  0.27856234  0.72024951  0.47082350    -1.07700
O828        O  0.27856301  0.77892278  0.02949863    -1.07200
C829        C  0.32297072  0.82333503  0.50052874     1.07500
C830        C  0.32297666  0.67584168  0.49978974     1.10100
C831        C  0.24959786  0.82333004  0.07390765     1.07700
C832        C  0.24886579  0.82332741  0.42641044     1.08000
C833        C  0.24959438  0.67583565  0.42641154     1.07600
C834        C  0.24887276  0.67584098  0.07390669     1.07200
C835        C  0.32297233  0.74995792  0.07391085     1.07600
C836        C  0.32297307  0.74921717  0.42641303     1.07100
H837        H  0.29067835  0.70813718  0.04160976     0.33800
O838        O  0.27860066  0.72021253  0.02953318    -1.28800
H839        H  0.29068364  0.79104070  0.45869920     0.33800
O840        O  0.27860850  0.77896647  0.47077433    -1.30100
C841        C  0.24885692  0.65386508  0.09588457    -0.17600
C842        C  0.24889424  0.63539904  0.11434981     0.06500
C843        C  0.24889488  0.61377344  0.13597103     0.08300
C844        C  0.24885680  0.59530572  0.15443478    -0.18400
C845        C  0.24962933  0.90386527  0.15442861    -0.17600
C846        C  0.24959669  0.88539827  0.13596556     0.06500
C847        C  0.24959527  0.86377295  0.11434720     0.08300
C848        C  0.24962706  0.84530590  0.09588423    -0.18400
C849        C  0.24885118  0.84530370  0.40443208    -0.17600
C850        C  0.24888816  0.86377029  0.38596711     0.06500
C851        C  0.24888777  0.88539591  0.36434579     0.08300
C852        C  0.24885193  0.90386308  0.34588165    -0.18400
C853        C  0.24962793  0.59530548  0.34588570    -0.17600
C854        C  0.24959398  0.61377099  0.36435019     0.06500
C855        C  0.24959243  0.63539378  0.38597102     0.08300
C856        C  0.24962380  0.65385940  0.40443537    -0.18400
C857        C  0.34494832  0.59530927  0.25055249    -0.17600
C858        C  0.36341338  0.61377532  0.25051805     0.06500
C859        C  0.38503514  0.63539913  0.25051840     0.08300
C860        C  0.40350006  0.65386494  0.25055044    -0.18400
C861        C  0.40349823  0.84530370  0.24976740    -0.17600
C862        C  0.38503415  0.86377020  0.24979902     0.06500
C863        C  0.36341411  0.88539509  0.24979789     0.08300
C864        C  0.34495003  0.90386170  0.24976417    -0.18400
C865        C  0.15349916  0.59530512  0.24976785    -0.17600
C866        C  0.13503505  0.61377147  0.24980117     0.06500
C867        C  0.11341516  0.63539624  0.24980081     0.08300
C868        C  0.09495145  0.65386306  0.24976642    -0.18400
C869        C  0.09495124  0.84530691  0.25055193    -0.17600
C870        C  0.11341367  0.86377547  0.25051641     0.06500
C871        C  0.13503249  0.88540197  0.25051657     0.08300
C872        C  0.15349671  0.90386834  0.25054944    -0.18400
C873        C  0.40350199  0.74998562  0.15443799    -0.17600
C874        C  0.38503595  0.74995346  0.13597383     0.06500
C875        C  0.36341324  0.74995241  0.11435288     0.08300
C876        C  0.34494795  0.74998468  0.09588770    -0.18400
C877        C  0.15350515  0.74919890  0.09588397    -0.17600
C878        C  0.13504142  0.74923301  0.11435105     0.06500
C879        C  0.11342042  0.74923305  0.13597535     0.08300
C880        C  0.09495491  0.74919732  0.15444103    -0.18400
C881        C  0.09494795  0.74997587  0.34588771    -0.17600
C882        C  0.11341132  0.74994254  0.36435448     0.06500
C883        C  0.13503131  0.74994372  0.38597765     0.08300
C884        C  0.15349628  0.74997708  0.40444260    -0.18400
C885        C  0.40350399  0.74919613  0.34588299    -0.17600
C886        C  0.38503848  0.74922996  0.36434837     0.06500
C887        C  0.36341562  0.74923094  0.38597090     0.08300
C888        C  0.34494977  0.74919648  0.40443629    -0.18400
C889        C  0.34494734  0.84531278  0.00054942    -0.17600
C890        C  0.36341158  0.86377977  0.50051394     0.06500
C891        C  0.38503295  0.88540403  0.50051417     0.08300
C892        C  0.40349821  0.90386946  0.00054746    -0.18400
C893        C  0.34495392  0.65386568  0.99976407    -0.17600
C894        C  0.36341744  0.63539847  0.99979685     0.06500
C895        C  0.38503635  0.61377241  0.99979630     0.08300
C896        C  0.40349958  0.59530502  0.99976337    -0.18400
C897        C  0.15349557  0.84529998  0.99977058    -0.17600
C898        C  0.13503095  0.86376573  0.49980392     0.06500
C899        C  0.11341140  0.88539071  0.49980319     0.08300
C900        C  0.09494858  0.90385841  0.99976865    -0.18400
C901        C  0.15349967  0.65386674  0.00055373    -0.17600
C902        C  0.13503611  0.63539984  0.00052062     0.06500
C903        C  0.11341723  0.61377349  0.00051858     0.08300
C904        C  0.09495431  0.59530542  0.00055198    -0.18400
C905        C  0.40350072  0.49998142  0.40444063    -0.17600
C906        C  0.38503549  0.99994858  0.38597581     0.06500
C907        C  0.36341484  0.99994856  0.36435300     0.08300
C908        C  0.34495103  0.49998226  0.34588643    -0.18400
C909        C  0.09495010  0.49919434  0.40443621    -0.17600
C910        C  0.11341692  0.49922942  0.38597186     0.06500
C911        C  0.13504104  0.49922986  0.36435068     0.08300
C912        C  0.15350686  0.49919723  0.34588568    -0.18400
C913        C  0.15349759  0.49998543  0.15444261    -0.17600
C914        C  0.13503200  0.49995315  0.13597818     0.06500
C915        C  0.11341052  0.49995094  0.11435628     0.08300
C916        C  0.09494615  0.49998186  0.09589033    -0.18400
C917        C  0.40350105  0.49919886  0.09588100    -0.17600
C918        C  0.38503661  0.49923320  0.11434745     0.06500
C919        C  0.36341626  0.49923409  0.13597247     0.08300
C920        C  0.34495224  0.49919866  0.15443963    -0.18400
C921        C  0.99883599  0.59530164  0.40443007    -0.17600
C922        C  0.99886901  0.61376766  0.38596454     0.06500
C923        C  0.49886818  0.63539332  0.36434331     0.08300
C924        C  0.99883552  0.65386106  0.34587977    -0.18400
C925        C  0.99961918  0.90386095  0.40443619    -0.17600
C926        C  0.99958738  0.88539515  0.38597209     0.06500
C927        C  0.49958930  0.86377185  0.36435179     0.08300
C928        C  0.99962386  0.84530607  0.34588752    -0.18400
C929        C  0.99883711  0.84530701  0.15443626    -0.17600
C930        C  0.99886933  0.86377321  0.13597084     0.06500
C931        C  0.99886721  0.88539728  0.11434788     0.08300
C932        C  0.99883379  0.90386323  0.09588245    -0.18400
C933        C  0.99961778  0.59530999  0.09588224    -0.17600
C934        C  0.99958423  0.61377540  0.11434686     0.06500
C935        C  0.49958509  0.63539758  0.13596829     0.08300
C936        C  0.99961898  0.65386246  0.15443335    -0.18400
O937        O  0.99952710  0.54673729  0.58253754    -0.85600
O938        O  0.99892225  0.54672851  0.91777911    -0.85700
O939        O  0.04637800  0.58195971  0.50046259    -0.87400
O940        O  0.45207654  0.58195945  0.49986655    -0.86200
O941        O  0.41684428  0.54673298  0.49985362    -0.85800
O942        O  0.08160836  0.54673120  0.50046031    -0.87100
O943        O  0.99893005  0.58195796  0.95300801    -0.85600
O944        O  0.99951869  0.58196424  0.54730671    -0.85200
Zr945      Zr  0.99922881  0.55808919  0.50015775     2.84300
O946        O  0.46988966  0.52891776  0.97082396    -1.07200
O947        O  0.02856413  0.52892069  0.52949862    -1.07900
C948        C  0.99959214  0.57333404  0.57390557     1.07500
C949        C  0.99885797  0.57332611  0.92640921     1.07500
C950        C  0.07297713  0.57332864  0.50052974     1.10500
C951        C  0.42547684  0.57332930  0.49979018     1.08200
H952        H  0.04068785  0.54103932  0.95870005     0.33800
O953        O  0.02861243  0.52896563  0.97077551    -1.28100
H954        H  0.45777914  0.54102983  0.54160503     0.33500
O955        O  0.46985749  0.52895270  0.52952789    -1.29800
O956        O  0.99951720  0.95243399  0.91778116    -0.85600
O957        O  0.99892729  0.95243717  0.58253610    -0.87100
O958        O  0.08160477  0.49928668  0.95301149    -0.85600
O959        O  0.41684516  0.49989121  0.95301288    -0.85700
O960        O  0.41684572  0.49928640  0.54730735    -0.85400
O961        O  0.08160404  0.49987764  0.54731457    -0.85200
O962        O  0.04637415  0.91720580  0.49985056    -0.85600
O963        O  0.45207503  0.91721210  0.50045130    -0.85100
O964        O  0.08160550  0.95243323  0.49987279    -0.86100
O965        O  0.41684486  0.95244105  0.50045580    -0.85300
O966        O  0.04637451  0.49927904  0.91778007    -0.85700
O967        O  0.04637266  0.49989158  0.58254432    -0.85400
O968        O  0.45207676  0.49929564  0.58253801    -0.85000
O969        O  0.45207618  0.49987538  0.91778274    -0.85500
O970        O  0.99952544  0.91720602  0.95301076    -0.85700
O971        O  0.99892616  0.91720806  0.54730641    -0.87100
Zr972      Zr  0.99922802  0.49958406  0.94165230     2.83100
Zr973      Zr  0.99922664  0.49958652  0.55866905     2.83500
Zr974      Zr  0.05773494  0.49958388  0.50016151     2.84100
Zr975      Zr  0.44071572  0.49958718  0.50016023     2.83400
Zr976      Zr  0.99922697  0.94107840  0.50015970     2.84200
O977        O  0.46989158  0.97025377  0.52949298    -1.07700
O978        O  0.02856372  0.97024729  0.97082357    -1.07200
C979        C  0.99959120  0.92583695  0.92641245     1.07500
C980        C  0.99885779  0.92583961  0.57390495     1.10100
C981        C  0.07297311  0.49921505  0.92641259     1.07700
C982        C  0.42547752  0.49995363  0.92641519     1.08000
C983        C  0.42547798  0.49922239  0.57390547     1.07600
C984        C  0.07297124  0.49995448  0.57391297     1.07200
C985        C  0.07297316  0.92583606  0.49979264     1.07600
C986        C  0.42547618  0.92584415  0.50052247     1.07100
H987        H  0.04067561  0.95813504  0.54161279     0.33800
O988        O  0.02859938  0.97021144  0.52953549    -1.28800
H989        H  0.45778236  0.95814618  0.95871952     0.33800
O990        O  0.46986171  0.97022351  0.97079788    -1.30100
O991        O  0.99951864  0.70243519  0.66777991    -0.85600
O992        O  0.99892982  0.70243557  0.83253563    -0.85700
O993        O  0.04637636  0.66720842  0.74984887    -0.87400
O994        O  0.45207652  0.66720912  0.75045097    -0.86200
O995        O  0.41684554  0.70243729  0.75045634    -0.85800
O996        O  0.08160652  0.70243695  0.74987072    -0.87100
O997        O  0.99892655  0.66720782  0.79730454    -0.85600
O998        O  0.99952565  0.66720598  0.70300841    -0.85200
Zr999      Zr  0.99922736  0.69107794  0.75015762     2.84300
O1000       O  0.46989251  0.72025273  0.77949167    -1.07200
O1001       O  0.02856373  0.72024842  0.72082276    -1.07900
C1002       C  0.99959194  0.67583778  0.67641036     1.07500
C1003       C  0.99885942  0.67583841  0.82390338     1.07500
C1004       C  0.07297511  0.67583965  0.74979065     1.10500
C1005       C  0.42547744  0.67584044  0.75052331     1.08200
H1006       H  0.04067595  0.70813406  0.79161081     0.33800
O1007       O  0.02859945  0.72021047  0.77953427    -1.28100
H1008       H  0.45778282  0.70814608  0.70871704     0.33500
O1009       O  0.46986215  0.72022354  0.72079603    -1.29800
O1010       O  0.99953212  0.79673367  0.83254098    -0.85600
O1011       O  0.99892578  0.79673274  0.66778213    -0.87100
O1012       O  0.08160535  0.74987618  0.79731238    -0.85600
O1013       O  0.41684824  0.74928365  0.79730916    -0.85700
O1014       O  0.41684589  0.74989170  0.70301066    -0.85400
O1015       O  0.08160840  0.74928965  0.70301563    -0.85200
O1016       O  0.04637539  0.83196004  0.75046545    -0.85600
O1017       O  0.45207546  0.83195978  0.74987318    -0.85100
O1018       O  0.08160653  0.79673254  0.75046127    -0.86100
O1019       O  0.41684450  0.79673194  0.74985429    -0.85300
O1020       O  0.04637460  0.74988883  0.83254247    -0.85700
O1021       O  0.04637881  0.74927998  0.66778370    -0.85400
O1022       O  0.45207751  0.74987821  0.66778085    -0.85000
O1023       O  0.45207948  0.74929414  0.83253984    -0.85500
O1024       O  0.99952062  0.83196182  0.79731158    -0.85700
O1025       O  0.99892770  0.83196021  0.70301323    -0.87100
Zr1026     Zr  0.99922763  0.74958479  0.80866908     2.83100
Zr1027     Zr  0.99922895  0.74958563  0.69165159     2.83500
Zr1028     Zr  0.05773364  0.74958544  0.75016175     2.84100
Zr1029     Zr  0.44071503  0.74958509  0.75015974     2.83400
Zr1030     Zr  0.99922694  0.80808880  0.75016131     2.84200
O1031       O  0.46988983  0.77891674  0.72082552    -1.07700
O1032       O  0.02856437  0.77892154  0.77950099    -1.07200
C1033       C  0.99959670  0.82333072  0.82391014     1.07500
C1034       C  0.99885890  0.82332995  0.67641394     1.10100
C1035       C  0.07297300  0.74995142  0.82391072     1.07700
C1036       C  0.42548077  0.74922010  0.82390735     1.08000
C1037       C  0.42547863  0.74995603  0.67641293     1.07600
C1038       C  0.07297739  0.74921721  0.67641678     1.07200
C1039       C  0.07297467  0.82332969  0.75053128     1.07600
C1040       C  0.42547617  0.82332866  0.74979412     1.07100
H1041       H  0.04068617  0.79104200  0.70870217     0.33800
O1042       O  0.02861079  0.77896753  0.72077685    -1.28800
H1043       H  0.45777771  0.79102670  0.79160745     0.33800
O1044       O  0.46985599  0.77895014  0.77952940    -1.30100
O1045       O  0.33160772  0.99929083  0.70301507    -0.85600
O1046       O  0.16684250  0.99989081  0.70301471    -0.85700
O1047       O  0.24952332  0.95243834  0.66777450    -0.87400
O1048       O  0.24893310  0.54673124  0.66778027    -0.86200
O1049       O  0.24893534  0.58195870  0.70301121    -0.85800
O1050       O  0.24953049  0.91720989  0.70300376    -0.87100
O1051       O  0.20207334  0.99987840  0.66778409    -0.85600
O1052       O  0.29637699  0.99928005  0.66778421    -0.85200
Zr1053     Zr  0.24922699  0.99958527  0.69165137     2.84300
O1054       O  0.21988749  0.52891719  0.72082431    -1.07200
O1055       O  0.27856200  0.97024880  0.72082300    -1.07900
C1056       C  0.32297578  0.99921812  0.67641648     1.07500
C1057       C  0.17547465  0.99995568  0.67641690     1.07500
C1058       C  0.24959857  0.92584118  0.67640532     1.10500
C1059       C  0.24886976  0.57332844  0.67641202     1.08200
H1060       H  0.20778093  0.95814617  0.70871768     0.33800
O1061       O  0.21986023  0.97022345  0.72079650    -1.28100
H1062       H  0.29068568  0.54104037  0.70870145     0.33500
O1063       O  0.27860983  0.52896618  0.72077609    -1.29800
O1064       O  0.16684906  0.99928626  0.79731139    -0.85600
O1065       O  0.33160747  0.99987999  0.79731095    -0.87100
O1066       O  0.20207376  0.91721058  0.75044864    -0.85600
O1067       O  0.20207616  0.58196090  0.74986936    -0.85700
O1068       O  0.29637183  0.58196347  0.75046295    -0.85400
O1069       O  0.29637449  0.91720662  0.74984747    -0.85200
O1070       O  0.24894062  0.95243722  0.83253707    -0.85600
O1071       O  0.24953498  0.54673321  0.83254039    -0.85100
O1072       O  0.24893125  0.91720942  0.79730588    -0.86100
O1073       O  0.24952272  0.58196041  0.79731005    -0.85300
O1074       O  0.16684367  0.95243980  0.75045944    -0.85700
O1075       O  0.33160444  0.95243554  0.74987055    -0.85400
O1076       O  0.33160224  0.54673533  0.75046179    -0.85000
O1077       O  0.16684497  0.54673343  0.74985600    -0.85500
O1078       O  0.20208172  0.99929400  0.83254061    -0.85700
O1079       O  0.29637720  0.99989308  0.83254133    -0.87100
Zr1080     Zr  0.19071474  0.99958609  0.75016150     2.83100
Zr1081     Zr  0.30773331  0.99958546  0.75016123     2.83500
Zr1082     Zr  0.24922614  0.94107741  0.75015690     2.84100
Zr1083     Zr  0.24922629  0.55808824  0.75015949     2.83400
Zr1084     Zr  0.24922936  0.99958503  0.80866868     2.84200
O1085       O  0.27856432  0.52892202  0.77949965    -1.07700
O1086       O  0.21989277  0.97025285  0.77949239    -1.07200
C1087       C  0.17548267  0.99922147  0.82390918     1.07500
C1088       C  0.32297560  0.99995639  0.82390948     1.10100
C1089       C  0.17547486  0.92584281  0.75052338     1.07700
C1090       C  0.17547685  0.57333004  0.74979323     1.08000
C1091       C  0.32297088  0.57333272  0.75053062     1.07600
C1092       C  0.32297322  0.92583807  0.74978947     1.07200
C1093       C  0.24886975  0.92584012  0.82390488     1.07600
C1094       C  0.24959969  0.57332991  0.82390880     1.07100
H1095       H  0.29067643  0.95813414  0.79160922     0.33800
O1096       O  0.27859925  0.97021014  0.77953298    -1.28800
H1097       H  0.20777905  0.54102785  0.79160807     0.33800
O1098       O  0.21985676  0.52895079  0.77952993    -1.30100
O1099       O  0.20207581  0.66721118  0.00045391    -0.86800
O1100       O  0.20207288  0.83195746  0.99987201    -0.85700
O1101       O  0.16684752  0.74928569  0.54730945    -0.87400
O1102       O  0.16684177  0.74988716  0.95301451    -0.86200
O1103       O  0.20207210  0.74987294  0.91778351    -0.85800
O1104       O  0.20207984  0.74929397  0.58253885    -0.87100
O1105       O  0.16684252  0.79672912  0.99985544    -0.85600
O1106       O  0.16684401  0.70243861  0.00045974    -0.85200
Zr1107     Zr  0.19071487  0.74958418  0.00016074     2.84300
O1108       O  0.21988662  0.77891628  0.97082326    -1.07200
O1109       O  0.21989199  0.72025139  0.52949332    -1.07900
C1110       C  0.17547654  0.67584220  0.00052671     1.07500
C1111       C  0.17547380  0.82332577  0.99979493     1.07500
C1112       C  0.17548086  0.74922161  0.57390728     1.10500
C1113       C  0.17547353  0.74995002  0.92641663     1.08200
H1114       H  0.20777797  0.79102697  0.54160637     0.33800
O1115       O  0.21985599  0.77895034  0.52952838    -1.28100
H1116       H  0.20778193  0.70814322  0.95871931     0.33500
O1117       O  0.21986133  0.72022147  0.97079747    -1.29800
O1118       O  0.29637119  0.83196461  0.00046242    -0.85600
O1119       O  0.29637813  0.66720950  0.99984931    -0.87100
O1120       O  0.24953223  0.79673339  0.58253938    -0.85600
O1121       O  0.24892967  0.79672978  0.91777953    -0.85700
O1122       O  0.24951859  0.70243268  0.91777992    -0.85400
O1123       O  0.24894072  0.70243834  0.58253769    -0.85200
O1124       O  0.33160425  0.74988180  0.54731218    -0.85600
O1125       O  0.33160507  0.74929307  0.95301168    -0.85100
O1126       O  0.29637403  0.74989425  0.58254278    -0.86100
O1127       O  0.29637422  0.74927675  0.91778081    -0.85300
O1128       O  0.24952179  0.83196041  0.54730885    -0.85700
O1129       O  0.24893575  0.66720928  0.54730801    -0.85400
O1130       O  0.24952897  0.66720501  0.95301004    -0.85000
O1131       O  0.24893232  0.83195852  0.95300936    -0.85500
O1132       O  0.33160307  0.79673791  0.00045925    -0.85700
O1133       O  0.33160711  0.70243942  0.99986928    -0.87100
Zr1134     Zr  0.24922520  0.80808849  0.00015811     2.83100
Zr1135     Zr  0.24922827  0.69107767  0.00015930     2.83500
Zr1136     Zr  0.24922804  0.74958539  0.55866794     2.84100
Zr1137     Zr  0.24922584  0.74958348  0.94165082     2.83400
Zr1138     Zr  0.30773359  0.74958801  0.00016009     2.84200
O1139       O  0.27856234  0.72024956  0.97082358    -1.07700
O1140       O  0.27856303  0.77892265  0.52949858    -1.07200
C1141       C  0.32297075  0.82333504  0.00052877     1.07500
C1142       C  0.32297664  0.67584170  0.99978977     1.10100
C1143       C  0.24959790  0.82333001  0.57390764     1.07700
C1144       C  0.24886584  0.82332732  0.92641038     1.08000
C1145       C  0.24959447  0.67583566  0.92641154     1.07600
C1146       C  0.24887278  0.67584093  0.57390667     1.07200
C1147       C  0.32297234  0.74995798  0.57391083     1.07600
C1148       C  0.32297306  0.74921717  0.92641301     1.07100
H1149       H  0.29067840  0.70813701  0.54160985     0.33800
O1150       O  0.27860069  0.72021245  0.52953316    -1.28800
H1151       H  0.29068359  0.79104057  0.95869930     0.33800
O1152       O  0.27860849  0.77896648  0.97077436    -1.30100
C1153       C  0.24885696  0.65386502  0.59588456    -0.17600
C1154       C  0.24889426  0.63539901  0.61434981     0.06500
C1155       C  0.24889498  0.61377344  0.63597108     0.08300
C1156       C  0.24885695  0.59530570  0.65443483    -0.18400
C1157       C  0.24962932  0.90386527  0.65442861    -0.17600
C1158       C  0.24959678  0.88539832  0.63596552     0.06500
C1159       C  0.24959536  0.86377293  0.61434721     0.08300
C1160       C  0.24962705  0.84530584  0.59588427    -0.18400
C1161       C  0.24885115  0.84530364  0.90443209    -0.17600
C1162       C  0.24888808  0.86377023  0.88596710     0.06500
C1163       C  0.24888769  0.88539581  0.86434574     0.08300
C1164       C  0.24885186  0.90386303  0.84588164    -0.18400
C1165       C  0.24962785  0.59530552  0.84588566    -0.17600
C1166       C  0.24959389  0.61377103  0.86435016     0.06500
C1167       C  0.24959241  0.63539380  0.88597100     0.08300
C1168       C  0.24962389  0.65385938  0.90443540    -0.18400
C1169       C  0.34494828  0.59530932  0.75055239    -0.17600
C1170       C  0.36341335  0.61377537  0.75051792     0.06500
C1171       C  0.38503514  0.63539914  0.75051826     0.08300
C1172       C  0.40350006  0.65386497  0.75055032    -0.18400
C1173       C  0.40349828  0.84530371  0.74976732    -0.17600
C1174       C  0.38503419  0.86377020  0.74979902     0.06500
C1175       C  0.36341413  0.88539505  0.74979781     0.08300
C1176       C  0.34495003  0.90386164  0.74976403    -0.18400
C1177       C  0.15349922  0.59530514  0.74976771    -0.17600
C1178       C  0.13503501  0.61377138  0.74980103     0.06500
C1179       C  0.11341512  0.63539614  0.74980074     0.08300
C1180       C  0.09495150  0.65386306  0.74976646    -0.18400
C1181       C  0.09495119  0.84530700  0.75055179    -0.17600
C1182       C  0.11341361  0.86377557  0.75051628     0.06500
C1183       C  0.13503248  0.88540202  0.75051644     0.08300
C1184       C  0.15349677  0.90386832  0.75054930    -0.18400
C1185       C  0.40350198  0.74998565  0.65443794    -0.17600
C1186       C  0.38503586  0.74995347  0.63597385     0.06500
C1187       C  0.36341319  0.74995235  0.61435290     0.08300
C1188       C  0.34494798  0.74998469  0.59588765    -0.18400
C1189       C  0.15350516  0.74919892  0.59588384    -0.17600
C1190       C  0.13504146  0.74923307  0.61435097     0.06500
C1191       C  0.11342046  0.74923311  0.63597527     0.08300
C1192       C  0.09495492  0.74919739  0.65444091    -0.18400
C1193       C  0.09494797  0.74997583  0.84588767    -0.17600
C1194       C  0.11341132  0.74994243  0.86435448     0.06500
C1195       C  0.13503126  0.74994361  0.88597771     0.08300
C1196       C  0.15349627  0.74997709  0.90444262    -0.18400
C1197       C  0.40350407  0.74919608  0.84588300    -0.17600
C1198       C  0.38503853  0.74922997  0.86434834     0.06500
C1199       C  0.36341565  0.74923101  0.88597087     0.08300
C1200       C  0.34494979  0.74919650  0.90443626    -0.18400
C1201       C  0.34494733  0.84531278  0.50054940    -0.17600
C1202       C  0.36341159  0.86377976  0.00051402     0.06500
C1203       C  0.38503297  0.88540400  0.00051425     0.08300
C1204       C  0.40349821  0.90386947  0.50054744    -0.18400
C1205       C  0.34495390  0.65386562  0.49976404    -0.17600
C1206       C  0.36341745  0.63539845  0.49979688     0.06500
C1207       C  0.38503639  0.61377244  0.49979632     0.08300
C1208       C  0.40349966  0.59530509  0.49976345    -0.18400
C1209       C  0.15349545  0.84529990  0.49977050    -0.17600
C1210       C  0.13503108  0.86376583  0.99980402     0.06500
C1211       C  0.11341148  0.88539078  0.99980328     0.08300
C1212       C  0.09494858  0.90385843  0.49976861    -0.18400
C1213       C  0.15349967  0.65386678  0.50055368    -0.17600
C1214       C  0.13503610  0.63539987  0.50052066     0.06500
C1215       C  0.11341729  0.61377344  0.50051868     0.08300
C1216       C  0.09495433  0.59530539  0.50055202    -0.18400
C1217       C  0.40350074  0.49998136  0.90444065    -0.17600
C1218       C  0.38503554  0.99994860  0.88597580     0.06500
C1219       C  0.36341487  0.99994845  0.86435301     0.08300
C1220       C  0.34495104  0.49998233  0.84588646    -0.18400
C1221       C  0.09495007  0.49919441  0.90443616    -0.17600
C1222       C  0.11341686  0.49922949  0.88597176     0.06500
C1223       C  0.13504102  0.49922987  0.86435061     0.08300
C1224       C  0.15350683  0.49919717  0.84588560    -0.18400
C1225       C  0.15349764  0.49998549  0.65444256    -0.17600
C1226       C  0.13503200  0.49995322  0.63597817     0.06500
C1227       C  0.11341045  0.49995100  0.61435634     0.08300
C1228       C  0.09494610  0.49998193  0.59589037    -0.18400
C1229       C  0.40350110  0.49919893  0.59588100    -0.17600
C1230       C  0.38503663  0.49923321  0.61434744     0.06500
C1231       C  0.36341621  0.49923403  0.63597237     0.08300
C1232       C  0.34495220  0.49919867  0.65443955    -0.18400
C1233       C  0.99883601  0.59530157  0.90443006    -0.17600
C1234       C  0.99886905  0.61376753  0.88596447     0.06500
C1235       C  0.49886828  0.63539326  0.86434329     0.08300
C1236       C  0.99883546  0.65386105  0.84587979    -0.18400
C1237       C  0.99961915  0.90386099  0.90443620    -0.17600
C1238       C  0.99958747  0.88539515  0.88597211     0.06500
C1239       C  0.49958928  0.86377183  0.86435180     0.08300
C1240       C  0.99962387  0.84530602  0.84588754    -0.18400
C1241       C  0.99883726  0.84530699  0.65443627    -0.17600
C1242       C  0.99886944  0.86377318  0.63597085     0.06500
C1243       C  0.99886717  0.88539731  0.61434795     0.08300
C1244       C  0.99883370  0.90386324  0.59588251    -0.18400
C1245       C  0.99961771  0.59531000  0.59588219    -0.17600
C1246       C  0.99958420  0.61377542  0.61434681     0.06500
C1247       C  0.49958512  0.63539761  0.63596824     0.08300
C1248       C  0.99961896  0.65386250  0.65443331    -0.18400
O1249       O  0.49952705  0.04673731  0.08253752    -0.85600
O1250       O  0.49892220  0.04672853  0.41777905    -0.85700
O1251       O  0.54637801  0.08195971  0.00046271    -0.87400
O1252       O  0.95207653  0.08195950  0.99986642    -0.86200
O1253       O  0.91684433  0.04673298  0.99985368    -0.85800
O1254       O  0.58160838  0.04673121  0.00046043    -0.87100
O1255       O  0.49892998  0.08195799  0.45300795    -0.85600
O1256       O  0.49951863  0.08196431  0.04730675    -0.85200
Zr1257     Zr  0.49922879  0.05808924  0.00015783     2.84300
O1258       O  0.96988971  0.02891766  0.47082397    -1.07200
O1259       O  0.52856414  0.02892075  0.02949869    -1.07900
C1260       C  0.49959208  0.07333406  0.07390559     1.07500
C1261       C  0.49885791  0.07332614  0.42640915     1.07500
C1262       C  0.57297714  0.07332864  0.00052983     1.10500
C1263       C  0.92547685  0.07332930  0.99979011     1.08200
H1264       H  0.54068784  0.04103938  0.45869992     0.33800
O1265       O  0.52861245  0.02896567  0.47077540    -1.28100
H1266       H  0.95777909  0.04102994  0.04160521     0.33500
O1267       O  0.96985747  0.02895274  0.02952794    -1.29800
O1268       O  0.49951715  0.45243389  0.41778114    -0.85600
O1269       O  0.49892724  0.45243715  0.08253611    -0.87100
O1270       O  0.58160471  0.99928666  0.45301141    -0.85600
O1271       O  0.91684514  0.99989117  0.45301283    -0.85700
O1272       O  0.91684567  0.99928639  0.04730736    -0.85400
O1273       O  0.58160401  0.99987762  0.04731460    -0.85200
O1274       O  0.54637411  0.41720574  0.99985062    -0.85600
O1275       O  0.95207504  0.41721208  0.00045139    -0.85100
O1276       O  0.58160544  0.45243316  0.99987267    -0.86100
O1277       O  0.91684491  0.45244106  0.00045592    -0.85300
O1278       O  0.54637444  0.99927902  0.41777999    -0.85700
O1279       O  0.54637263  0.99989156  0.08254436    -0.85400
O1280       O  0.95207674  0.99929562  0.08253799    -0.85000
O1281       O  0.95207619  0.99987553  0.41778272    -0.85500
O1282       O  0.49952541  0.41720596  0.45301078    -0.85700
O1283       O  0.49892612  0.41720810  0.04730637    -0.87100
Zr1284     Zr  0.49922802  0.99958405  0.44165225     2.83100
Zr1285     Zr  0.49922662  0.99958654  0.05866904     2.83500
Zr1286     Zr  0.55773494  0.99958392  0.00016152     2.84100
Zr1287     Zr  0.94071571  0.99958720  0.00016028     2.83400
Zr1288     Zr  0.49922698  0.44107841  0.00015965     2.84200
O1289       O  0.96989157  0.47025373  0.02949294    -1.07700
O1290       O  0.52856368  0.47024732  0.47082362    -1.07200
C1291       C  0.49959119  0.42583688  0.42641247     1.07500
C1292       C  0.49885773  0.42583961  0.07390492     1.10100
C1293       C  0.57297304  0.99921503  0.42641252     1.07700
C1294       C  0.92547753  0.99995367  0.42641515     1.08000
C1295       C  0.92547795  0.99922237  0.07390547     1.07600
C1296       C  0.57297122  0.99995446  0.07391299     1.07200
C1297       C  0.57297310  0.42583600  0.99979261     1.07600
C1298       C  0.92547619  0.42584416  0.00052256     1.07100
H1299       H  0.54067537  0.45813517  0.04161267     0.33800
O1300       O  0.52859934  0.47021143  0.02953549    -1.28800
H1301       H  0.95778227  0.45814599  0.45871934     0.33800
O1302       O  0.96986172  0.47022350  0.47079787    -1.30100
O1303       O  0.49951858  0.20243513  0.16777989    -0.85600
O1304       O  0.49892976  0.20243559  0.33253568    -0.85700
O1305       O  0.54637640  0.16720843  0.24984877    -0.87400
O1306       O  0.95207655  0.16720903  0.25045095    -0.86200
O1307       O  0.91684558  0.20243724  0.25045633    -0.85800
O1308       O  0.58160654  0.20243698  0.24987081    -0.87100
O1309       O  0.49892651  0.16720787  0.29730456    -0.85600
O1310       O  0.49952560  0.16720595  0.20300843    -0.85200
Zr1311     Zr  0.49922736  0.19107792  0.25015765     2.84300
O1312       O  0.96989247  0.22025268  0.27949174    -1.07200
O1313       O  0.52856375  0.22024836  0.22082274    -1.07900
C1314       C  0.49959188  0.17583773  0.17641038     1.07500
C1315       C  0.49885936  0.17583844  0.32390341     1.07500
C1316       C  0.57297514  0.17583969  0.24979062     1.10500
C1317       C  0.92547747  0.17584037  0.25052332     1.08200
H1318       H  0.54067606  0.20813389  0.29161104     0.33800
O1319       O  0.52859944  0.22021044  0.27953431    -1.28100
H1320       H  0.95778290  0.20814627  0.20871728     0.33500
O1321       O  0.96986213  0.22022355  0.22079609    -1.29800
O1322       O  0.49953204  0.29673369  0.33254099    -0.85600
O1323       O  0.49892589  0.29673271  0.16778213    -0.87100
O1324       O  0.58160533  0.24987630  0.29731241    -0.85600
O1325       O  0.91684818  0.24928375  0.29730916    -0.85700
O1326       O  0.91684592  0.24989179  0.20301072    -0.85400
O1327       O  0.58160835  0.24928974  0.20301569    -0.85200
O1328       O  0.54637538  0.33196006  0.25046556    -0.85600
O1329       O  0.95207548  0.33195979  0.24987329    -0.85100
O1330       O  0.58160648  0.29673251  0.25046139    -0.86100
O1331       O  0.91684448  0.29673200  0.24985442    -0.85300
O1332       O  0.54637459  0.24988876  0.33254251    -0.85700
O1333       O  0.54637879  0.24928006  0.16778372    -0.85400
O1334       O  0.95207748  0.24987829  0.16778086    -0.85000
O1335       O  0.95207945  0.24929424  0.33253978    -0.85500
O1336       O  0.49952073  0.33196184  0.29731158    -0.85700
O1337       O  0.49892762  0.33196019  0.20301322    -0.87100
Zr1338     Zr  0.49922762  0.24958479  0.30866907     2.83100
Zr1339     Zr  0.49922894  0.24958560  0.19165159     2.83500
Zr1340     Zr  0.55773360  0.24958541  0.25016178     2.84100
Zr1341     Zr  0.94071503  0.24958513  0.25015980     2.83400
Zr1342     Zr  0.49922694  0.30808880  0.25016129     2.84200
O1343       O  0.96988984  0.27891673  0.22082553    -1.07700
O1344       O  0.52856434  0.27892154  0.27950097    -1.07200
C1345       C  0.49959669  0.32333075  0.32391013     1.07500
C1346       C  0.49885890  0.32332992  0.17641393     1.10100
C1347       C  0.57297299  0.24995148  0.32391075     1.07700
C1348       C  0.92548073  0.24922021  0.32390733     1.08000
C1349       C  0.92547862  0.24995609  0.17641297     1.07600
C1350       C  0.57297735  0.24921732  0.17641682     1.07200
C1351       C  0.57297465  0.32332966  0.25053141     1.07600
C1352       C  0.92547617  0.32332871  0.24979425     1.07100
H1353       H  0.54068619  0.29104201  0.20870215     0.33800
O1354       O  0.52861081  0.27896752  0.22077681    -1.28800
H1355       H  0.95777778  0.29102678  0.29160744     0.33800
O1356       O  0.96985603  0.27895019  0.27952940    -1.30100
O1357       O  0.83160771  0.49929090  0.20301509    -0.85600
O1358       O  0.66684246  0.49989087  0.20301478    -0.85700
O1359       O  0.74952336  0.45243835  0.16777456    -0.87400
O1360       O  0.74893292  0.04673121  0.16778018    -0.86200
O1361       O  0.74893514  0.08195866  0.20301114    -0.85800
O1362       O  0.74953034  0.41720984  0.20300376    -0.87100
O1363       O  0.70207331  0.49987828  0.16778417    -0.85600
O1364       O  0.79637701  0.49927994  0.16778419    -0.85200
Zr1365     Zr  0.74922701  0.49958530  0.19165135     2.84300
O1366       O  0.71988744  0.02891722  0.22082424    -1.07200
O1367       O  0.77856199  0.47024881  0.22082302    -1.07900
C1368       C  0.82297579  0.49921806  0.17641648     1.07500
C1369       C  0.67547462  0.49995563  0.17641697     1.07500
C1370       C  0.74959852  0.42584117  0.17640533     1.10500
C1371       C  0.74886955  0.07332838  0.17641195     1.08200
H1372       H  0.70778099  0.45814629  0.20871767     0.33800
O1373       O  0.71986024  0.47022343  0.22079643    -1.28100
H1374       H  0.79068560  0.04104027  0.20870145     0.33500
O1375       O  0.77860981  0.02896621  0.22077605    -1.29800
O1376       O  0.66684909  0.49928635  0.29731143    -0.85600
O1377       O  0.83160749  0.49988005  0.29731092    -0.87100
O1378       O  0.70207372  0.41721053  0.25044875    -0.85600
O1379       O  0.70207608  0.08196096  0.24986947    -0.85700
O1380       O  0.79637180  0.08196353  0.25046300    -0.85400
O1381       O  0.79637448  0.41720661  0.24984758    -0.85200
O1382       O  0.74894062  0.45243726  0.33253702    -0.85600
O1383       O  0.74953482  0.04673325  0.33254032    -0.85100
O1384       O  0.74893126  0.41720939  0.29730590    -0.86100
O1385       O  0.74952273  0.08196050  0.29731002    -0.85300
O1386       O  0.66684364  0.45243975  0.25045955    -0.85700
O1387       O  0.83160436  0.45243560  0.24987066    -0.85400
O1388       O  0.83160220  0.04673536  0.25046186    -0.85000
O1389       O  0.66684495  0.04673343  0.24985611    -0.85500
O1390       O  0.70208174  0.49929411  0.33254066    -0.85700
O1391       O  0.79637720  0.49989315  0.33254128    -0.87100
Zr1392     Zr  0.69071474  0.49958605  0.25016150     2.83100
Zr1393     Zr  0.80773328  0.49958552  0.25016123     2.83500
Zr1394     Zr  0.74922613  0.44107736  0.25015690     2.84100
Zr1395     Zr  0.74922623  0.05808830  0.25015945     2.83400
Zr1396     Zr  0.74922934  0.49958508  0.30866863     2.84200
O1397       O  0.77856428  0.02892207  0.27949959    -1.07700
O1398       O  0.71989278  0.47025281  0.27949236    -1.07200
C1399       C  0.67548269  0.49922158  0.32390924     1.07500
C1400       C  0.82297561  0.49995644  0.32390945     1.10100
C1401       C  0.67547483  0.42584277  0.25052350     1.07700
C1402       C  0.67547680  0.07333006  0.24979336     1.08000
C1403       C  0.82297085  0.07333275  0.25053069     1.07600
C1404       C  0.82297318  0.42583812  0.24978961     1.07200
C1405       C  0.74886976  0.42584014  0.32390488     1.07600
C1406       C  0.74959964  0.07332997  0.32390877     1.07100
H1407       H  0.79067646  0.45813420  0.29160934     0.33800
O1408       O  0.77859922  0.47021020  0.27953295    -1.28800
H1409       H  0.70777907  0.04102770  0.29160797     0.33800
O1410       O  0.71985673  0.02895077  0.27952988    -1.30100
O1411       O  0.70207583  0.16721116  0.50045384    -0.86800
O1412       O  0.70207286  0.33195744  0.49987191    -0.85700
O1413       O  0.66684748  0.24928579  0.04730954    -0.87400
O1414       O  0.66684166  0.24988712  0.45301454    -0.86200
O1415       O  0.70207200  0.24987291  0.41778354    -0.85800
O1416       O  0.70207979  0.24929407  0.08253892    -0.87100
O1417       O  0.66684252  0.29672908  0.49985552    -0.85600
O1418       O  0.66684407  0.20243863  0.50045967    -0.85200
Zr1419     Zr  0.69071489  0.24958417  0.50016071     2.84300
O1420       O  0.71988663  0.27891628  0.47082331    -1.07200
O1421       O  0.71989203  0.22025140  0.02949330    -1.07900
C1422       C  0.67547656  0.17584220  0.50052664     1.07500
C1423       C  0.67547378  0.32332573  0.49979490     1.07500
C1424       C  0.67548081  0.24922172  0.07390738     1.10500
C1425       C  0.67547343  0.24995002  0.42641665     1.08200
H1426       H  0.70777794  0.29102706  0.04160629     0.33800
O1427       O  0.71985596  0.27895040  0.02952833    -1.28100
H1428       H  0.70778201  0.20814330  0.45871934     0.33500
O1429       O  0.71986133  0.22022147  0.47079743    -1.29800
O1430       O  0.79637117  0.33196463  0.50046229    -0.85600
O1431       O  0.79637815  0.16720954  0.49984940    -0.87100
O1432       O  0.74953206  0.29673341  0.08253945    -0.85600
O1433       O  0.74892959  0.29672985  0.41777958    -0.85700
O1434       O  0.74951837  0.20243265  0.41778001    -0.85400
O1435       O  0.74894054  0.20243840  0.08253774    -0.85200
O1436       O  0.83160420  0.24988170  0.04731221    -0.85600
O1437       O  0.83160504  0.24929317  0.45301167    -0.85100
O1438       O  0.79637394  0.24989433  0.08254276    -0.86100
O1439       O  0.79637416  0.24927684  0.41778082    -0.85300
O1440       O  0.74952182  0.33196038  0.04730886    -0.85700
O1441       O  0.74893578  0.16720936  0.04730803    -0.85400
O1442       O  0.74952895  0.16720492  0.45301008    -0.85000
O1443       O  0.74893226  0.33195862  0.45300939    -0.85500
O1444       O  0.83160304  0.29673793  0.50045930    -0.85700
O1445       O  0.83160713  0.20243946  0.49986917    -0.87100
Zr1446     Zr  0.74922519  0.30808851  0.50015813     2.83100
Zr1447     Zr  0.74922828  0.19107768  0.50015929     2.83500
Zr1448     Zr  0.74922795  0.24958546  0.05866795     2.84100
Zr1449     Zr  0.74922578  0.24958351  0.44165080     2.83400
Zr1450     Zr  0.80773357  0.24958803  0.50016005     2.84200
O1451       O  0.77856233  0.22024956  0.47082349    -1.07700
O1452       O  0.77856295  0.27892275  0.02949861    -1.07200
C1453       C  0.82297072  0.32333506  0.50052874     1.07500
C1454       C  0.82297666  0.17584174  0.49978974     1.10100
C1455       C  0.74959785  0.32333001  0.07390766     1.07700
C1456       C  0.74886573  0.32332739  0.42641041     1.08000
C1457       C  0.74959431  0.17583561  0.42641159     1.07600
C1458       C  0.74887269  0.17584099  0.07390670     1.07200
C1459       C  0.82297227  0.24995798  0.07391084     1.07600
C1460       C  0.82297301  0.24921728  0.42641302     1.07100
H1461       H  0.79067830  0.20813715  0.04160977     0.33800
O1462       O  0.77860062  0.22021250  0.02953319    -1.28800
H1463       H  0.79068357  0.29104072  0.45869920     0.33800
O1464       O  0.77860843  0.27896651  0.47077434    -1.30100
C1465       C  0.74885679  0.15386505  0.09588456    -0.17600
C1466       C  0.74889405  0.13539900  0.11434979     0.06500
C1467       C  0.74889476  0.11377339  0.13597103     0.08300
C1468       C  0.74885673  0.09530567  0.15443478    -0.18400
C1469       C  0.74962926  0.40386531  0.15442860    -0.17600
C1470       C  0.74959662  0.38539832  0.13596552     0.06500
C1471       C  0.74959519  0.36377295  0.11434720     0.08300
C1472       C  0.74962700  0.34530587  0.09588425    -0.18400
C1473       C  0.74885100  0.34530367  0.40443206    -0.17600
C1474       C  0.74888803  0.36377026  0.38596709     0.06500
C1475       C  0.74888770  0.38539591  0.36434579     0.08300
C1476       C  0.74885187  0.40386310  0.34588169    -0.18400
C1477       C  0.74962786  0.09530553  0.34588567    -0.17600
C1478       C  0.74959391  0.11377101  0.36435021     0.06500
C1479       C  0.74959236  0.13539376  0.38597106     0.08300
C1480       C  0.74962373  0.15385937  0.40443542    -0.18400
C1481       C  0.84494826  0.09530934  0.25055249    -0.17600
C1482       C  0.86341334  0.11377537  0.25051805     0.06500
C1483       C  0.88503516  0.13539909  0.25051840     0.08300
C1484       C  0.90350009  0.15386490  0.25055044    -0.18400
C1485       C  0.90349831  0.34530380  0.24976740    -0.17600
C1486       C  0.88503421  0.36377031  0.24979902     0.06500
C1487       C  0.86341415  0.38539515  0.24979789     0.08300
C1488       C  0.84495004  0.40386173  0.24976417    -0.18400
C1489       C  0.65349915  0.09530514  0.24976785    -0.17600
C1490       C  0.63503501  0.11377143  0.24980117     0.06500
C1491       C  0.61341516  0.13539622  0.24980081     0.08300
C1492       C  0.59495154  0.15386312  0.24976642    -0.18400
C1493       C  0.59495120  0.34530693  0.25055193    -0.17600
C1494       C  0.61341364  0.36377547  0.25051641     0.06500
C1495       C  0.63503249  0.38540193  0.25051657     0.08300
C1496       C  0.65349674  0.40386826  0.25054944    -0.18400
C1497       C  0.90350194  0.24998558  0.15443799    -0.17600
C1498       C  0.88503588  0.24995340  0.13597383     0.06500
C1499       C  0.86341318  0.24995241  0.11435288     0.08300
C1500       C  0.84494788  0.24998476  0.09588770    -0.18400
C1501       C  0.65350512  0.24919898  0.09588396    -0.17600
C1502       C  0.63504137  0.24923306  0.11435103     0.06500
C1503       C  0.61342038  0.24923317  0.13597532     0.08300
C1504       C  0.59495488  0.24919751  0.15444100    -0.18400
C1505       C  0.59494797  0.24997594  0.34588768    -0.17600
C1506       C  0.61341130  0.24994254  0.36435448     0.06500
C1507       C  0.63503126  0.24994373  0.38597767     0.08300
C1508       C  0.65349623  0.24997718  0.40444262    -0.18400
C1509       C  0.90350404  0.24919619  0.34588302    -0.17600
C1510       C  0.88503852  0.24923008  0.36434840     0.06500
C1511       C  0.86341560  0.24923112  0.38597090     0.08300
C1512       C  0.84494972  0.24919661  0.40443627    -0.18400
C1513       C  0.84494736  0.34531274  0.00054942    -0.17600
C1514       C  0.86341157  0.36377977  0.50051394     0.06500
C1515       C  0.88503294  0.38540403  0.50051417     0.08300
C1516       C  0.90349818  0.40386951  0.00054746    -0.18400
C1517       C  0.84495388  0.15386564  0.99976407    -0.17600
C1518       C  0.86341741  0.13539843  0.99979685     0.06500
C1519       C  0.88503635  0.11377242  0.99979630     0.08300
C1520       C  0.90349962  0.09530505  0.99976337    -0.18400
C1521       C  0.65349550  0.34529992  0.99977058    -0.17600
C1522       C  0.63503098  0.36376570  0.49980392     0.06500
C1523       C  0.61341142  0.38539070  0.49980319     0.08300
C1524       C  0.59494855  0.40385838  0.99976865    -0.18400
C1525       C  0.65349968  0.15386674  0.00055373    -0.17600
C1526       C  0.63503612  0.13539982  0.00052062     0.06500
C1527       C  0.61341727  0.11377343  0.00051858     0.08300
C1528       C  0.59495432  0.09530539  0.00055198    -0.18400
C1529       C  0.90350076  0.99998135  0.40444060    -0.17600
C1530       C  0.88503555  0.49994854  0.38597577     0.06500
C1531       C  0.86341484  0.49994851  0.36435302     0.08300
C1532       C  0.84495101  0.99998232  0.34588646    -0.18400
C1533       C  0.59495000  0.99919439  0.40443612    -0.17600
C1534       C  0.61341687  0.99922947  0.38597181     0.06500
C1535       C  0.63504105  0.99922986  0.36435071     0.08300
C1536       C  0.65350684  0.99919715  0.34588567    -0.18400
C1537       C  0.65349760  0.99998547  0.15444262    -0.17600
C1538       C  0.63503202  0.99995320  0.13597816     0.06500
C1539       C  0.61341050  0.99995098  0.11435629     0.08300
C1540       C  0.59494612  0.99998191  0.09589036    -0.18400
C1541       C  0.90350108  0.99919891  0.09588104    -0.17600
C1542       C  0.88503665  0.99923325  0.11434750     0.06500
C1543       C  0.86341625  0.99923413  0.13597245     0.08300
C1544       C  0.84495222  0.99919871  0.15443961    -0.18400
C1545       C  0.49883595  0.09530161  0.40443004    -0.17600
C1546       C  0.49886900  0.11376762  0.38596451     0.06500
C1547       C  0.99886829  0.13539328  0.36434329     0.08300
C1548       C  0.49883539  0.15386102  0.34587976    -0.18400
C1549       C  0.49961921  0.40386094  0.40443620    -0.17600
C1550       C  0.49958747  0.38539518  0.38597205     0.06500
C1551       C  0.99958928  0.36377185  0.36435178     0.08300
C1552       C  0.49962382  0.34530604  0.34588753    -0.18400
C1553       C  0.49883721  0.34530696  0.15443626    -0.17600
C1554       C  0.49886938  0.36377316  0.13597084     0.06500
C1555       C  0.49886712  0.38539723  0.11434788     0.08300
C1556       C  0.49883364  0.40386319  0.09588244    -0.18400
C1557       C  0.49961765  0.09530998  0.09588224    -0.17600
C1558       C  0.49958415  0.11377537  0.11434687     0.06500
C1559       C  0.99958512  0.13539754  0.13596830     0.08300
C1560       C  0.49961890  0.15386242  0.15443335    -0.18400
O1561       O  0.49952697  0.04673734  0.58253753    -0.85600
O1562       O  0.49892228  0.04672856  0.91777909    -0.85700
O1563       O  0.54637802  0.08195977  0.50046259    -0.87400
O1564       O  0.95207651  0.08195950  0.49986654    -0.86200
O1565       O  0.91684434  0.04673295  0.49985362    -0.85800
O1566       O  0.58160836  0.04673124  0.50046031    -0.87100
O1567       O  0.49893006  0.08195797  0.95300803    -0.85600
O1568       O  0.49951875  0.08196430  0.54730671    -0.85200
Zr1569     Zr  0.49922884  0.05808924  0.50015775     2.84300
O1570       O  0.96988967  0.02891775  0.97082398    -1.07200
O1571       O  0.52856422  0.02892078  0.52949863    -1.07900
C1572       C  0.49959211  0.07333409  0.57390556     1.07500
C1573       C  0.49885799  0.07332616  0.92640922     1.07500
C1574       C  0.57297713  0.07332869  0.50052974     1.10500
C1575       C  0.92547683  0.07332929  0.49979018     1.08200
H1576       H  0.54068786  0.04103951  0.95870002     0.33800
O1577       O  0.52861240  0.02896570  0.97077553    -1.28100
H1578       H  0.95777924  0.04102984  0.54160498     0.33500
O1579       O  0.96985746  0.02895276  0.52952788    -1.29800
O1580       O  0.49951727  0.45243394  0.91778116    -0.85600
O1581       O  0.49892732  0.45243715  0.58253610    -0.87100
O1582       O  0.58160473  0.99928672  0.95301145    -0.85600
O1583       O  0.91684513  0.99989126  0.95301288    -0.85700
O1584       O  0.91684573  0.99928622  0.54730736    -0.85400
O1585       O  0.58160400  0.99987767  0.54731460    -0.85200
O1586       O  0.54637412  0.41720579  0.49985056    -0.85600
O1587       O  0.95207501  0.41721211  0.50045129    -0.85100
O1588       O  0.58160549  0.45243319  0.49987279    -0.86100
O1589       O  0.91684484  0.45244105  0.50045580    -0.85300
O1590       O  0.54637450  0.99927908  0.91778000    -0.85700
O1591       O  0.54637267  0.99989162  0.58254442    -0.85400
O1592       O  0.95207677  0.99929565  0.58253802    -0.85000
O1593       O  0.95207619  0.99987543  0.91778276    -0.85500
O1594       O  0.49952552  0.41720597  0.95301076    -0.85700
O1595       O  0.49892619  0.41720809  0.54730637    -0.87100
Zr1596     Zr  0.49922806  0.99958410  0.94165229     2.83100
Zr1597     Zr  0.49922667  0.99958659  0.55866904     2.83500
Zr1598     Zr  0.55773498  0.99958391  0.50016149     2.84100
Zr1599     Zr  0.94071571  0.99958712  0.50016023     2.83400
Zr1600     Zr  0.49922696  0.44107846  0.50015968     2.84200
O1601       O  0.96989149  0.47025377  0.52949298    -1.07700
O1602       O  0.52856366  0.47024733  0.97082359    -1.07200
C1603       C  0.49959129  0.42583691  0.92641246     1.07500
C1604       C  0.49885782  0.42583961  0.57390491     1.10100
C1605       C  0.57297309  0.99921505  0.92641255     1.07700
C1606       C  0.92547751  0.99995368  0.92641520     1.08000
C1607       C  0.92547799  0.99922227  0.57390547     1.07600
C1608       C  0.57297124  0.99995448  0.57391302     1.07200
C1609       C  0.57297314  0.42583603  0.49979264     1.07600
C1610       C  0.92547616  0.42584416  0.50052247     1.07100
H1611       H  0.54067553  0.45813518  0.54161273     0.33800
O1612       O  0.52859941  0.47021150  0.52953548    -1.28800
H1613       H  0.95778219  0.45814604  0.95871943     0.33800
O1614       O  0.96986171  0.47022351  0.97079792    -1.30100
O1615       O  0.49951867  0.20243520  0.66777991    -0.85600
O1616       O  0.49892972  0.20243560  0.83253564    -0.85700
O1617       O  0.54637632  0.16720840  0.74984887    -0.87400
O1618       O  0.95207658  0.16720903  0.75045097    -0.86200
O1619       O  0.91684563  0.20243725  0.75045634    -0.85800
O1620       O  0.58160645  0.20243695  0.74987072    -0.87100
O1621       O  0.49892644  0.16720785  0.79730456    -0.85600
O1622       O  0.49952568  0.16720597  0.70300839    -0.85200
Zr1623     Zr  0.49922733  0.19107791  0.75015760     2.84300
O1624       O  0.96989250  0.22025267  0.77949171    -1.07200
O1625       O  0.52856372  0.22024839  0.72082276    -1.07900
C1626       C  0.49959196  0.17583778  0.67641035     1.07500
C1627       C  0.49885933  0.17583845  0.82390341     1.07500
C1628       C  0.57297505  0.17583966  0.74979065     1.10500
C1629       C  0.92547750  0.17584038  0.75052331     1.08200
H1630       H  0.54067593  0.20813402  0.79161082     0.33800
O1631       O  0.52859944  0.22021043  0.77953427    -1.28100
H1632       H  0.95778282  0.20814623  0.70871709     0.33500
O1633       O  0.96986213  0.22022353  0.72079601    -1.29800
O1634       O  0.49953215  0.29673373  0.83254093    -0.85600
O1635       O  0.49892583  0.29673274  0.66778211    -0.87100
O1636       O  0.58160537  0.24987619  0.79731238    -0.85600
O1637       O  0.91684820  0.24928367  0.79730914    -0.85700
O1638       O  0.91684597  0.24989170  0.70301067    -0.85400
O1639       O  0.58160837  0.24928963  0.70301565    -0.85200
O1640       O  0.54637535  0.33196001  0.75046545    -0.85600
O1641       O  0.95207552  0.33195980  0.74987317    -0.85100
O1642       O  0.58160648  0.29673250  0.75046127    -0.86100
O1643       O  0.91684458  0.29673195  0.74985429    -0.85300
O1644       O  0.54637460  0.24988884  0.83254244    -0.85700
O1645       O  0.54637880  0.24928014  0.66778369    -0.85400
O1646       O  0.95207752  0.24987822  0.66778081    -0.85000
O1647       O  0.95207943  0.24929415  0.83253983    -0.85500
O1648       O  0.49952064  0.33196190  0.79731154    -0.85700
O1649       O  0.49892755  0.33196017  0.70301324    -0.87100
Zr1650     Zr  0.49922763  0.24958479  0.80866907     2.83100
Zr1651     Zr  0.49922896  0.24958564  0.69165160     2.83500
Zr1652     Zr  0.55773360  0.24958541  0.75016176     2.84100
Zr1653     Zr  0.94071509  0.24958509  0.75015976     2.83400
Zr1654     Zr  0.49922687  0.30808877  0.75016131     2.84200
O1655       O  0.96988991  0.27891674  0.72082555    -1.07700
O1656       O  0.52856432  0.27892152  0.77950097    -1.07200
C1657       C  0.49959672  0.32333079  0.82391010     1.07500
C1658       C  0.49885882  0.32332995  0.67641394     1.10100
C1659       C  0.57297300  0.24995148  0.82391072     1.07700
C1660       C  0.92548072  0.24922016  0.82390733     1.08000
C1661       C  0.92547867  0.24995605  0.67641292     1.07600
C1662       C  0.57297738  0.24921728  0.67641678     1.07200
C1663       C  0.57297463  0.32332965  0.75053128     1.07600
C1664       C  0.92547623  0.32332867  0.74979412     1.07100
H1665       H  0.54068618  0.29104193  0.70870225     0.33800
O1666       O  0.52861084  0.27896757  0.72077684    -1.28800
H1667       H  0.95777786  0.29102662  0.79160738     0.33800
O1668       O  0.96985606  0.27895014  0.77952941    -1.30100
O1669       O  0.83160767  0.49929096  0.70301508    -0.85600
O1670       O  0.66684248  0.49989077  0.70301470    -0.85700
O1671       O  0.74952326  0.45243833  0.66777450    -0.87400
O1672       O  0.74893304  0.04673126  0.66778026    -0.86200
O1673       O  0.74893528  0.08195873  0.70301120    -0.85800
O1674       O  0.74953044  0.41720988  0.70300376    -0.87100
O1675       O  0.70207335  0.49987836  0.66778410    -0.85600
O1676       O  0.79637697  0.49927998  0.66778419    -0.85200
Zr1677     Zr  0.74922697  0.49958524  0.69165137     2.84300
O1678       O  0.71988741  0.02891728  0.72082430    -1.07200
O1679       O  0.77856200  0.47024881  0.72082301    -1.07900
C1680       C  0.82297576  0.49921813  0.67641648     1.07500
C1681       C  0.67547466  0.49995564  0.67641689     1.07500
C1682       C  0.74959850  0.42584118  0.67640532     1.10500
C1683       C  0.74886969  0.07332845  0.67641200     1.08200
H1684       H  0.70778083  0.45814607  0.70871766     0.33800
O1685       O  0.71986022  0.47022343  0.72079654    -1.28100
H1686       H  0.79068552  0.04104021  0.70870156     0.33500
O1687       O  0.77860982  0.02896621  0.72077608    -1.29800
O1688       O  0.66684904  0.49928643  0.79731141    -0.85600
O1689       O  0.83160742  0.49988010  0.79731095    -0.87100
O1690       O  0.70207377  0.41721056  0.75044864    -0.85600
O1691       O  0.70207606  0.08196089  0.74986936    -0.85700
O1692       O  0.79637182  0.08196345  0.75046295    -0.85400
O1693       O  0.79637450  0.41720666  0.74984746    -0.85200
O1694       O  0.74894056  0.45243723  0.83253707    -0.85600
O1695       O  0.74953492  0.04673318  0.83254040    -0.85100
O1696       O  0.74893120  0.41720943  0.79730588    -0.86100
O1697       O  0.74952265  0.08196040  0.79731007    -0.85300
O1698       O  0.66684368  0.45243979  0.75045945    -0.85700
O1699       O  0.83160441  0.45243562  0.74987054    -0.85400
O1700       O  0.83160224  0.04673530  0.75046179    -0.85000
O1701       O  0.66684487  0.04673342  0.74985601    -0.85500
O1702       O  0.70208173  0.49929398  0.83254061    -0.85700
O1703       O  0.79637718  0.49989317  0.83254136    -0.87100
Zr1704     Zr  0.69071469  0.49958607  0.75016151     2.83100
Zr1705     Zr  0.80773326  0.49958553  0.75016123     2.83500
Zr1706     Zr  0.74922615  0.44107740  0.75015691     2.84100
Zr1707     Zr  0.74922625  0.05808829  0.75015949     2.83400
Zr1708     Zr  0.74922935  0.49958501  0.80866868     2.84200
O1709       O  0.77856427  0.02892199  0.77949961    -1.07700
O1710       O  0.71989275  0.47025281  0.77949238    -1.07200
C1711       C  0.67548267  0.49922154  0.82390919     1.07500
C1712       C  0.82297559  0.49995645  0.82390948     1.10100
C1713       C  0.67547487  0.42584282  0.75052338     1.07700
C1714       C  0.67547676  0.07333003  0.74979323     1.08000
C1715       C  0.82297086  0.07333270  0.75053062     1.07600
C1716       C  0.82297322  0.42583814  0.74978947     1.07200
C1717       C  0.74886968  0.42584013  0.82390488     1.07600
C1718       C  0.74959963  0.07332988  0.82390881     1.07100
H1719       H  0.79067660  0.45813411  0.79160928     0.33800
O1720       O  0.77859929  0.47021015  0.77953298    -1.28800
H1721       H  0.70777921  0.04102771  0.79160796     0.33800
O1722       O  0.71985674  0.02895082  0.77952994    -1.30100
O1723       O  0.70207582  0.16721117  0.00045391    -0.86800
O1724       O  0.70207282  0.33195742  0.99987201    -0.85700
O1725       O  0.66684753  0.24928571  0.54730946    -0.87400
O1726       O  0.66684181  0.24988717  0.95301453    -0.86200
O1727       O  0.70207210  0.24987295  0.91778348    -0.85800
O1728       O  0.70207982  0.24929400  0.58253888    -0.87100
O1729       O  0.66684248  0.29672906  0.99985544    -0.85600
O1730       O  0.66684405  0.20243862  0.00045974    -0.85200
Zr1731     Zr  0.69071490  0.24958419  0.00016076     2.84300
O1732       O  0.71988659  0.27891627  0.97082324    -1.07200
O1733       O  0.71989199  0.22025137  0.52949333    -1.07900
C1734       C  0.67547656  0.17584220  0.00052671     1.07500
C1735       C  0.67547373  0.32332572  0.99979493     1.07500
C1736       C  0.67548084  0.24922168  0.57390730     1.10500
C1737       C  0.67547354  0.24995008  0.92641663     1.08200
H1738       H  0.70777809  0.29102690  0.54160629     0.33800
O1739       O  0.71985599  0.27895036  0.52952834    -1.28100
H1740       H  0.70778210  0.20814342  0.95871942     0.33500
O1741       O  0.71986135  0.22022149  0.97079744    -1.29800
O1742       O  0.79637119  0.33196457  0.00046242    -0.85600
O1743       O  0.79637812  0.16720954  0.99984931    -0.87100
O1744       O  0.74953216  0.29673345  0.58253938    -0.85600
O1745       O  0.74892960  0.29672987  0.91777957    -0.85700
O1746       O  0.74951853  0.20243268  0.91777993    -0.85400
O1747       O  0.74894064  0.20243842  0.58253768    -0.85200
O1748       O  0.83160430  0.24988178  0.54731217    -0.85600
O1749       O  0.83160515  0.24929305  0.95301171    -0.85100
O1750       O  0.79637405  0.24989422  0.58254275    -0.86100
O1751       O  0.79637428  0.24927692  0.91778087    -0.85300
O1752       O  0.74952172  0.33196048  0.54730885    -0.85700
O1753       O  0.74893587  0.16720932  0.54730803    -0.85400
O1754       O  0.74952891  0.16720498  0.95301003    -0.85000
O1755       O  0.74893225  0.33195864  0.95300938    -0.85500
O1756       O  0.83160306  0.29673787  0.00045925    -0.85700
O1757       O  0.83160712  0.20243942  0.99986927    -0.87100
Zr1758     Zr  0.74922516  0.30808850  0.00015809     2.83100
Zr1759     Zr  0.74922826  0.19107767  0.00015929     2.83500
Zr1760     Zr  0.74922802  0.24958546  0.55866793     2.84100
Zr1761     Zr  0.74922584  0.24958352  0.94165079     2.83400
Zr1762     Zr  0.80773354  0.24958799  0.00016007     2.84200
O1763       O  0.77856230  0.22024954  0.97082355    -1.07700
O1764       O  0.77856307  0.27892281  0.52949863    -1.07200
C1765       C  0.82297074  0.32333500  0.00052877     1.07500
C1766       C  0.82297662  0.17584171  0.99978977     1.10100
C1767       C  0.74959782  0.32333007  0.57390764     1.07700
C1768       C  0.74886577  0.32332742  0.92641040     1.08000
C1769       C  0.74959440  0.17583565  0.92641154     1.07600
C1770       C  0.74887277  0.17584099  0.57390668     1.07200
C1771       C  0.82297238  0.24995798  0.57391081     1.07600
C1772       C  0.82297312  0.24921724  0.92641304     1.07100
H1773       H  0.79067833  0.20813725  0.54160981     0.33800
O1774       O  0.77860066  0.22021255  0.52953316    -1.28800
H1775       H  0.79068358  0.29104072  0.95869925     0.33800
O1776       O  0.77860844  0.27896650  0.97077436    -1.30100
C1777       C  0.74885690  0.15386510  0.59588459    -0.17600
C1778       C  0.74889414  0.13539908  0.61434984     0.06500
C1779       C  0.74889478  0.11377346  0.63597107     0.08300
C1780       C  0.74885682  0.09530571  0.65443480    -0.18400
C1781       C  0.74962925  0.40386527  0.65442861    -0.17600
C1782       C  0.74959671  0.38539831  0.63596554     0.06500
C1783       C  0.74959529  0.36377294  0.61434722     0.08300
C1784       C  0.74962698  0.34530588  0.59588427    -0.18400
C1785       C  0.74885108  0.34530373  0.90443208    -0.17600
C1786       C  0.74888802  0.36377033  0.88596712     0.06500
C1787       C  0.74888762  0.38539590  0.86434577     0.08300
C1788       C  0.74885179  0.40386307  0.84588162    -0.18400
C1789       C  0.74962778  0.09530548  0.84588569    -0.17600
C1790       C  0.74959383  0.11377100  0.86435017     0.06500
C1791       C  0.74959234  0.13539380  0.88597100     0.08300
C1792       C  0.74962382  0.15385939  0.90443537    -0.18400
C1793       C  0.84494823  0.09530933  0.75055239    -0.17600
C1794       C  0.86341331  0.11377538  0.75051792     0.06500
C1795       C  0.88503514  0.13539912  0.75051826     0.08300
C1796       C  0.90350009  0.15386491  0.75055032    -0.18400
C1797       C  0.90349829  0.34530372  0.74976732    -0.17600
C1798       C  0.88503418  0.36377021  0.74979902     0.06500
C1799       C  0.86341410  0.38539506  0.74979781     0.08300
C1800       C  0.84495003  0.40386170  0.74976403    -0.18400
C1801       C  0.65349913  0.09530515  0.74976771    -0.17600
C1802       C  0.63503499  0.11377145  0.74980103     0.06500
C1803       C  0.61341510  0.13539622  0.74980074     0.08300
C1804       C  0.59495146  0.15386310  0.74976646    -0.18400
C1805       C  0.59495118  0.34530695  0.75055179    -0.17600
C1806       C  0.61341363  0.36377551  0.75051628     0.06500
C1807       C  0.63503251  0.38540197  0.75051644     0.08300
C1808       C  0.65349676  0.40386833  0.75054929    -0.18400
C1809       C  0.90350197  0.24998563  0.65443797    -0.17600
C1810       C  0.88503586  0.24995347  0.63597387     0.06500
C1811       C  0.86341323  0.24995248  0.61435288     0.08300
C1812       C  0.84494800  0.24998481  0.59588764    -0.18400
C1813       C  0.65350511  0.24919903  0.59588382    -0.17600
C1814       C  0.63504140  0.24923308  0.61435095     0.06500
C1815       C  0.61342041  0.24923306  0.63597526     0.08300
C1816       C  0.59495490  0.24919739  0.65444093    -0.18400
C1817       C  0.59494793  0.24997600  0.84588770    -0.17600
C1818       C  0.61341131  0.24994261  0.86435449     0.06500
C1819       C  0.63503128  0.24994379  0.88597768     0.08300
C1820       C  0.65349626  0.24997725  0.90444264    -0.18400
C1821       C  0.90350401  0.24919619  0.84588298    -0.17600
C1822       C  0.88503848  0.24922998  0.86434832     0.06500
C1823       C  0.86341561  0.24923095  0.88597084     0.08300
C1824       C  0.84494980  0.24919650  0.90443626    -0.18400
C1825       C  0.84494732  0.34531279  0.50054940    -0.17600
C1826       C  0.86341161  0.36377973  0.00051402     0.06500
C1827       C  0.88503293  0.38540406  0.00051425     0.08300
C1828       C  0.90349819  0.40386947  0.50054744    -0.18400
C1829       C  0.84495394  0.15386573  0.49976404    -0.17600
C1830       C  0.86341746  0.13539852  0.49979688     0.06500
C1831       C  0.88503633  0.11377242  0.49979632     0.08300
C1832       C  0.90349959  0.09530505  0.49976345    -0.18400
C1833       C  0.65349552  0.34529992  0.49977050    -0.17600
C1834       C  0.63503101  0.36376577  0.99980402     0.06500
C1835       C  0.61341142  0.38539073  0.99980328     0.08300
C1836       C  0.59494858  0.40385839  0.49976861    -0.18400
C1837       C  0.65349964  0.15386679  0.50055368    -0.17600
C1838       C  0.63503606  0.13539990  0.50052066     0.06500
C1839       C  0.61341723  0.11377348  0.50051868     0.08300
C1840       C  0.59495432  0.09530541  0.50055202    -0.18400
C1841       C  0.90350073  0.99998142  0.90444066    -0.17600
C1842       C  0.88503553  0.49994861  0.88597581     0.06500
C1843       C  0.86341492  0.49994852  0.86435296     0.08300
C1844       C  0.84495106  0.99998219  0.84588643    -0.18400
C1845       C  0.59495008  0.99919434  0.90443613    -0.17600
C1846       C  0.61341689  0.99922948  0.88597176     0.06500
C1847       C  0.63504104  0.99922992  0.86435061     0.08300
C1848       C  0.65350685  0.99919717  0.84588561    -0.18400
C1849       C  0.65349766  0.99998554  0.65444253    -0.17600
C1850       C  0.63503199  0.99995327  0.63597819     0.06500
C1851       C  0.61341046  0.99995099  0.61435637     0.08300
C1852       C  0.59494614  0.99998185  0.59589036    -0.18400
C1853       C  0.90350110  0.99919881  0.59588100    -0.17600
C1854       C  0.88503662  0.99923320  0.61434742     0.06500
C1855       C  0.86341625  0.99923408  0.63597241     0.08300
C1856       C  0.84495222  0.99919872  0.65443958    -0.18400
C1857       C  0.49883600  0.09530166  0.90443011    -0.17600
C1858       C  0.49886897  0.11376763  0.88596454     0.06500
C1859       C  0.99886826  0.13539334  0.86434334     0.08300
C1860       C  0.49883543  0.15386110  0.84587982    -0.18400
C1861       C  0.49961919  0.40386096  0.90443621    -0.17600
C1862       C  0.49958738  0.38539512  0.88597214     0.06500
C1863       C  0.99958938  0.36377184  0.86435181     0.08300
C1864       C  0.49962387  0.34530607  0.84588752    -0.18400
C1865       C  0.49883712  0.34530701  0.65443629    -0.17600
C1866       C  0.49886935  0.36377320  0.63597084     0.06500
C1867       C  0.49886722  0.38539728  0.61434788     0.08300
C1868       C  0.49883376  0.40386320  0.59588245    -0.18400
C1869       C  0.49961775  0.09531003  0.59588219    -0.17600
C1870       C  0.49958424  0.11377543  0.61434682     0.06500
C1871       C  0.99958517  0.13539759  0.63596827     0.08300
C1872       C  0.49961895  0.15386250  0.65443331    -0.18400
O1873       O  0.49952702  0.54673730  0.08253753    -0.85600
O1874       O  0.49892220  0.54672851  0.41777902    -0.85700
O1875       O  0.54637801  0.58195971  0.00046270    -0.87400
O1876       O  0.95207651  0.58195943  0.99986642    -0.86200
O1877       O  0.91684429  0.54673293  0.99985368    -0.85800
O1878       O  0.58160837  0.54673120  0.00046043    -0.87100
O1879       O  0.49892998  0.58195793  0.45300797    -0.85600
O1880       O  0.49951879  0.58196431  0.04730676    -0.85200
Zr1881     Zr  0.49922880  0.55808923  0.00015782     2.84300
O1882       O  0.96988970  0.52891767  0.47082393    -1.07200
O1883       O  0.52856415  0.52892075  0.02949870    -1.07900
C1884       C  0.49959213  0.57333407  0.07390559     1.07500
C1885       C  0.49885795  0.57332612  0.42640915     1.07500
C1886       C  0.57297714  0.57332865  0.00052983     1.10500
C1887       C  0.92547682  0.57332925  0.99979011     1.08200
H1888       H  0.54068783  0.54103940  0.45869992     0.33800
O1889       O  0.52861246  0.52896566  0.47077539    -1.28100
H1890       H  0.95777909  0.54102994  0.04160522     0.33500
O1891       O  0.96985748  0.52895275  0.02952795    -1.29800
O1892       O  0.49951715  0.95243392  0.41778113    -0.85600
O1893       O  0.49892723  0.95243718  0.08253611    -0.87100
O1894       O  0.58160472  0.49928662  0.45301141    -0.85600
O1895       O  0.91684514  0.49989114  0.45301282    -0.85700
O1896       O  0.91684568  0.49928635  0.04730736    -0.85400
O1897       O  0.58160402  0.49987757  0.04731460    -0.85200
O1898       O  0.54637410  0.91720578  0.99985062    -0.85600
O1899       O  0.95207504  0.91721208  0.00045139    -0.85100
O1900       O  0.58160544  0.95243320  0.99987267    -0.86100
O1901       O  0.91684489  0.95244105  0.00045592    -0.85300
O1902       O  0.54637445  0.49927898  0.41777999    -0.85700
O1903       O  0.54637264  0.49989152  0.08254436    -0.85400
O1904       O  0.95207675  0.49929557  0.08253799    -0.85000
O1905       O  0.95207620  0.49987549  0.41778272    -0.85500
O1906       O  0.49952540  0.91720597  0.45301075    -0.85700
O1907       O  0.49892611  0.91720814  0.04730637    -0.87100
Zr1908     Zr  0.49922800  0.49958402  0.44165225     2.83100
Zr1909     Zr  0.49922661  0.49958653  0.05866904     2.83500
Zr1910     Zr  0.55773493  0.49958389  0.00016154     2.84100
Zr1911     Zr  0.94071574  0.49958718  0.00016027     2.83400
Zr1912     Zr  0.49922698  0.94107845  0.00015966     2.84200
O1913       O  0.96989156  0.97025377  0.02949294    -1.07700
O1914       O  0.52856365  0.97024733  0.47082364    -1.07200
C1915       C  0.49959118  0.92583690  0.42641245     1.07500
C1916       C  0.49885773  0.92583965  0.07390492     1.10100
C1917       C  0.57297304  0.49921498  0.42641252     1.07700
C1918       C  0.92547753  0.49995363  0.42641514     1.08000
C1919       C  0.92547796  0.49922232  0.07390547     1.07600
C1920       C  0.57297122  0.49995441  0.07391299     1.07200
C1921       C  0.57297310  0.92583605  0.99979261     1.07600
C1922       C  0.92547619  0.92584415  0.00052256     1.07100
H1923       H  0.54067554  0.95813516  0.04161272     0.33800
O1924       O  0.52859938  0.97021147  0.02953549    -1.28800
H1925       H  0.95778228  0.95814600  0.45871933     0.33800
O1926       O  0.96986174  0.97022347  0.47079787    -1.30100
O1927       O  0.49951854  0.70243516  0.16777988    -0.85600
O1928       O  0.49892976  0.70243559  0.33253565    -0.85700
O1929       O  0.54637637  0.66720839  0.24984878    -0.87400
O1930       O  0.95207653  0.66720907  0.25045095    -0.86200
O1931       O  0.91684556  0.70243726  0.25045632    -0.85800
O1932       O  0.58160651  0.70243694  0.24987081    -0.87100
O1933       O  0.49892650  0.66720784  0.29730456    -0.85600
O1934       O  0.49952576  0.66720600  0.20300843    -0.85200
Zr1935     Zr  0.49922737  0.69107793  0.25015766     2.84300
O1936       O  0.96989247  0.72025270  0.27949175    -1.07200
O1937       O  0.52856374  0.72024838  0.22082274    -1.07900
C1938       C  0.49959192  0.67583776  0.17641037     1.07500
C1939       C  0.49885935  0.67583843  0.32390340     1.07500
C1940       C  0.57297511  0.67583965  0.24979062     1.10500
C1941       C  0.92547745  0.67584040  0.25052332     1.08200
H1942       H  0.54067600  0.70813398  0.29161100     0.33800
O1943       O  0.52859946  0.72021044  0.27953434    -1.28100
H1944       H  0.95778291  0.70814629  0.20871728     0.33500
O1945       O  0.96986213  0.72022357  0.22079609    -1.29800
O1946       O  0.49953203  0.79673373  0.33254098    -0.85600
O1947       O  0.49892588  0.79673275  0.16778213    -0.87100
O1948       O  0.58160533  0.74987617  0.29731241    -0.85600
O1949       O  0.91684818  0.74928361  0.29730915    -0.85700
O1950       O  0.91684591  0.74989170  0.20301072    -0.85400
O1951       O  0.58160835  0.74928959  0.20301568    -0.85200
O1952       O  0.54637538  0.83195998  0.25046555    -0.85600
O1953       O  0.95207546  0.83195978  0.24987329    -0.85100
O1954       O  0.58160653  0.79673248  0.25046138    -0.86100
O1955       O  0.91684448  0.79673196  0.24985442    -0.85300
O1956       O  0.54637458  0.74988882  0.33254251    -0.85700
O1957       O  0.54637879  0.74927991  0.16778371    -0.85400
O1958       O  0.95207748  0.74987820  0.16778086    -0.85000
O1959       O  0.95207945  0.74929410  0.33253978    -0.85500
O1960       O  0.49952072  0.83196188  0.29731156    -0.85700
O1961       O  0.49892761  0.83196022  0.20301323    -0.87100
Zr1962     Zr  0.49922762  0.74958480  0.30866909     2.83100
Zr1963     Zr  0.49922893  0.74958560  0.19165158     2.83500
Zr1964     Zr  0.55773361  0.74958539  0.25016178     2.84100
Zr1965     Zr  0.94071503  0.74958510  0.25015980     2.83400
Zr1966     Zr  0.49922692  0.80808879  0.25016129     2.84200
O1967       O  0.96988984  0.77891669  0.22082554    -1.07700
O1968       O  0.52856431  0.77892151  0.27950095    -1.07200
C1969       C  0.49959668  0.82333079  0.32391012     1.07500
C1970       C  0.49885889  0.82332996  0.17641394     1.10100
C1971       C  0.57297298  0.74995142  0.32391075     1.07700
C1972       C  0.92548074  0.74922008  0.32390732     1.08000
C1973       C  0.92547862  0.74995603  0.17641298     1.07600
C1974       C  0.57297735  0.74921714  0.17641681     1.07200
C1975       C  0.57297466  0.82332962  0.25053136     1.07600
C1976       C  0.92547616  0.82332867  0.24979425     1.07100
H1977       H  0.54068613  0.79104187  0.20870218     0.33800
O1978       O  0.52861081  0.77896750  0.22077680    -1.28800
H1979       H  0.95777781  0.79102664  0.29160739     0.33800
O1980       O  0.96985601  0.77895017  0.27952942    -1.30100
O1981       O  0.83160770  0.99929094  0.20301509    -0.85600
O1982       O  0.66684244  0.99989076  0.20301477    -0.85700
O1983       O  0.74952335  0.95243830  0.16777453    -0.87400
O1984       O  0.74893291  0.54673127  0.16778017    -0.86200
O1985       O  0.74893515  0.58195870  0.20301115    -0.85800
O1986       O  0.74953034  0.91720983  0.20300377    -0.87100
O1987       O  0.70207330  0.99987833  0.16778417    -0.85600
O1988       O  0.79637700  0.99927996  0.16778419    -0.85200
Zr1989     Zr  0.74922699  0.99958523  0.19165135     2.84300
O1990       O  0.71988746  0.52891726  0.22082426    -1.07200
O1991       O  0.77856200  0.97024880  0.22082304    -1.07900
C1992       C  0.82297578  0.99921811  0.17641649     1.07500
C1993       C  0.67547461  0.99995562  0.17641697     1.07500
C1994       C  0.74959851  0.92584115  0.17640533     1.10500
C1995       C  0.74886954  0.57332844  0.17641195     1.08200
H1996       H  0.70778091  0.95814611  0.20871763     0.33800
O1997       O  0.71986022  0.97022339  0.22079645    -1.28100
H1998       H  0.79068565  0.54104029  0.20870144     0.33500
O1999       O  0.77860986  0.52896623  0.22077604    -1.29800
O2000       O  0.66684908  0.99928641  0.29731143    -0.85600
O2001       O  0.83160748  0.99988009  0.29731093    -0.87100
O2002       O  0.70207371  0.91721057  0.25044875    -0.85600
O2003       O  0.70207612  0.58196088  0.24986947    -0.85700
O2004       O  0.79637184  0.58196348  0.25046300    -0.85400
O2005       O  0.79637447  0.91720664  0.24984757    -0.85200
O2006       O  0.74894061  0.95243724  0.33253706    -0.85600
O2007       O  0.74953482  0.54673322  0.33254037    -0.85100
O2008       O  0.74893125  0.91720941  0.29730589    -0.86100
O2009       O  0.74952274  0.58196043  0.29731005    -0.85300
O2010       O  0.66684362  0.95243979  0.25045956    -0.85700
O2011       O  0.83160438  0.95243559  0.24987065    -0.85400
O2012       O  0.83160224  0.54673531  0.25046186    -0.85000
O2013       O  0.66684495  0.54673339  0.24985612    -0.85500
O2014       O  0.70208174  0.99929397  0.33254066    -0.85700
O2015       O  0.79637719  0.99989318  0.33254129    -0.87100
Zr2016     Zr  0.69071472  0.99958605  0.25016149     2.83100
Zr2017     Zr  0.80773328  0.99958553  0.25016124     2.83500
Zr2018     Zr  0.74922612  0.94107737  0.25015689     2.84100
Zr2019     Zr  0.74922628  0.55808830  0.25015945     2.83400
Zr2020     Zr  0.74922934  0.99958504  0.30866864     2.84200
O2021       O  0.77856433  0.52892209  0.27949959    -1.07700
O2022       O  0.71989277  0.97025282  0.27949234    -1.07200
C2023       C  0.67548268  0.99922152  0.32390924     1.07500
C2024       C  0.82297560  0.99995648  0.32390946     1.10100
C2025       C  0.67547482  0.92584281  0.25052351     1.07700
C2026       C  0.67547682  0.57333001  0.24979336     1.08000
C2027       C  0.82297088  0.57333271  0.25053069     1.07600
C2028       C  0.82297318  0.92583811  0.24978960     1.07200
C2029       C  0.74886975  0.92584013  0.32390489     1.07600
C2030       C  0.74959964  0.57332990  0.32390880     1.07100
H2031       H  0.79067649  0.95813410  0.29160933     0.33800
O2032       O  0.77859925  0.97021013  0.27953296    -1.28800
H2033       H  0.70777908  0.54102775  0.29160793     0.33800
O2034       O  0.71985674  0.52895082  0.27952985    -1.30100
O2035       O  0.70207582  0.66721116  0.50045384    -0.86800
O2036       O  0.70207288  0.83195740  0.49987191    -0.85700
O2037       O  0.66684748  0.74928569  0.04730953    -0.87400
O2038       O  0.66684169  0.74988711  0.45301453    -0.86200
O2039       O  0.70207203  0.74987289  0.41778353    -0.85800
O2040       O  0.70207983  0.74929397  0.08253889    -0.87100
O2041       O  0.66684251  0.79672908  0.49985552    -0.85600
O2042       O  0.66684407  0.70243863  0.50045967    -0.85200
Zr2043     Zr  0.69071489  0.74958419  0.50016071     2.84300
O2044       O  0.71988663  0.77891626  0.47082328    -1.07200
O2045       O  0.71989204  0.72025138  0.02949334    -1.07900
C2046       C  0.67547655  0.67584221  0.50052664     1.07500
C2047       C  0.67547379  0.82332572  0.49979490     1.07500
C2048       C  0.67548084  0.74922162  0.07390736     1.10500
C2049       C  0.67547346  0.74994996  0.42641664     1.08200
H2050       H  0.70777797  0.79102696  0.04160630     0.33800
O2051       O  0.71985600  0.77895034  0.02952833    -1.28100
H2052       H  0.70778203  0.70814337  0.45871941     0.33500
O2053       O  0.71986129  0.72022146  0.47079742    -1.29800
O2054       O  0.79637115  0.83196460  0.50046229    -0.85600
O2055       O  0.79637813  0.66720953  0.49984939    -0.87100
O2056       O  0.74953206  0.79673344  0.08253944    -0.85600
O2057       O  0.74892960  0.79672987  0.41777964    -0.85700
O2058       O  0.74951836  0.70243267  0.41777994    -0.85400
O2059       O  0.74894055  0.70243840  0.08253770    -0.85200
O2060       O  0.83160423  0.74988176  0.04731222    -0.85600
O2061       O  0.83160505  0.74929306  0.45301168    -0.85100
O2062       O  0.79637399  0.74989420  0.08254279    -0.86100
O2063       O  0.79637420  0.74927673  0.41778080    -0.85300
O2064       O  0.74952181  0.83196042  0.04730885    -0.85700
O2065       O  0.74893578  0.66720933  0.04730803    -0.85400
O2066       O  0.74952895  0.66720497  0.45301003    -0.85000
O2067       O  0.74893226  0.83195864  0.45300946    -0.85500
O2068       O  0.83160301  0.79673789  0.50045930    -0.85700
O2069       O  0.83160716  0.70243938  0.49986917    -0.87100
Zr2070     Zr  0.74922520  0.80808844  0.50015813     2.83100
Zr2071     Zr  0.74922826  0.69107767  0.50015929     2.83500
Zr2072     Zr  0.74922802  0.74958546  0.05866795     2.84100
Zr2073     Zr  0.74922580  0.74958349  0.44165078     2.83400
Zr2074     Zr  0.80773358  0.74958794  0.50016005     2.84200
O2075       O  0.77856231  0.72024952  0.47082349    -1.07700
O2076       O  0.77856301  0.77892278  0.02949859    -1.07200
C2077       C  0.82297070  0.82333503  0.50052874     1.07500
C2078       C  0.82297665  0.67584169  0.49978974     1.10100
C2079       C  0.74959784  0.82333005  0.07390765     1.07700
C2080       C  0.74886577  0.82332742  0.42641047     1.08000
C2081       C  0.74959430  0.67583564  0.42641154     1.07600
C2082       C  0.74887269  0.67584098  0.07390669     1.07200
C2083       C  0.82297232  0.74995792  0.07391085     1.07600
C2084       C  0.82297304  0.74921717  0.42641302     1.07100
H2085       H  0.79067832  0.70813716  0.04160974     0.33800
O2086       O  0.77860066  0.72021253  0.02953315    -1.28800
H2087       H  0.79068358  0.79104070  0.45869920     0.33800
O2088       O  0.77860845  0.77896646  0.47077433    -1.30100
C2089       C  0.74885684  0.65386508  0.09588457    -0.17600
C2090       C  0.74889416  0.63539904  0.11434981     0.06500
C2091       C  0.74889480  0.61377344  0.13597103     0.08300
C2092       C  0.74885672  0.59530572  0.15443478    -0.18400
C2093       C  0.74962926  0.90386527  0.15442861    -0.17600
C2094       C  0.74959661  0.88539827  0.13596556     0.06500
C2095       C  0.74959519  0.86377295  0.11434720     0.08300
C2096       C  0.74962699  0.84530590  0.09588423    -0.18400
C2097       C  0.74885111  0.84530370  0.40443211    -0.17600
C2098       C  0.74888808  0.86377028  0.38596712     0.06500
C2099       C  0.74888769  0.88539590  0.36434580     0.08300
C2100       C  0.74885186  0.90386307  0.34588166    -0.18400
C2101       C  0.74962785  0.59530548  0.34588570    -0.17600
C2102       C  0.74959386  0.61377099  0.36435019     0.06500
C2103       C  0.74959223  0.63539378  0.38597102     0.08300
C2104       C  0.74962367  0.65385940  0.40443537    -0.18400
C2105       C  0.84494827  0.59530930  0.25055249    -0.17600
C2106       C  0.86341336  0.61377533  0.25051805     0.06500
C2107       C  0.88503515  0.63539909  0.25051840     0.08300
C2108       C  0.90350006  0.65386492  0.25055044    -0.18400
C2109       C  0.90349829  0.84530374  0.24976740    -0.17600
C2110       C  0.88503421  0.86377025  0.24979902     0.06500
C2111       C  0.86341411  0.88539507  0.24979789     0.08300
C2112       C  0.84495001  0.90386167  0.24976417    -0.18400
C2113       C  0.65349919  0.59530513  0.24976785    -0.17600
C2114       C  0.63503506  0.61377144  0.24980117     0.06500
C2115       C  0.61341517  0.63539621  0.24980081     0.08300
C2116       C  0.59495152  0.65386309  0.24976642    -0.18400
C2117       C  0.59495118  0.84530694  0.25055181    -0.17600
C2118       C  0.61341361  0.86377550  0.25051635     0.06500
C2119       C  0.63503247  0.88540197  0.25051657     0.08300
C2120       C  0.65349672  0.90386830  0.25054944    -0.18400
C2121       C  0.90350194  0.74998562  0.15443800    -0.17600
C2122       C  0.88503589  0.74995346  0.13597384     0.06500
C2123       C  0.86341321  0.74995241  0.11435288     0.08300
C2124       C  0.84494794  0.74998468  0.09588768    -0.18400
C2125       C  0.65350517  0.74919890  0.09588397    -0.17600
C2126       C  0.63504144  0.74923301  0.11435108     0.06500
C2127       C  0.61342041  0.74923305  0.13597533     0.08300
C2128       C  0.59495488  0.74919732  0.15444099    -0.18400
C2129       C  0.59494796  0.74997587  0.34588768    -0.17600
C2130       C  0.61341130  0.74994254  0.36435449     0.06500
C2131       C  0.63503126  0.74994372  0.38597768     0.08300
C2132       C  0.65349625  0.74997708  0.40444261    -0.18400
C2133       C  0.90350405  0.74919613  0.34588299    -0.17600
C2134       C  0.88503856  0.74922996  0.36434839     0.06500
C2135       C  0.86341571  0.74923094  0.38597095     0.08300
C2136       C  0.84494981  0.74919648  0.40443630    -0.18400
C2137       C  0.84494733  0.84531278  0.00054937    -0.17600
C2138       C  0.86341153  0.86377979  0.50051394     0.06500
C2139       C  0.88503292  0.88540403  0.50051417     0.08300
C2140       C  0.90349819  0.90386948  0.00054746    -0.18400
C2141       C  0.84495389  0.65386566  0.99976407    -0.17600
C2142       C  0.86341743  0.63539846  0.99979685     0.06500
C2143       C  0.88503637  0.61377244  0.99979630     0.08300
C2144       C  0.90349961  0.59530504  0.99976337    -0.18400
C2145       C  0.65349549  0.84529997  0.99977058    -0.17600
C2146       C  0.63503107  0.86376577  0.49980392     0.06500
C2147       C  0.61341147  0.88539074  0.49980319     0.08300
C2148       C  0.59494854  0.90385842  0.99976865    -0.18400
C2149       C  0.65349966  0.65386677  0.00055373    -0.17600
C2150       C  0.63503609  0.63539986  0.00052062     0.06500
C2151       C  0.61341725  0.61377346  0.00051858     0.08300
C2152       C  0.59495432  0.59530540  0.00055198    -0.18400
C2153       C  0.90350076  0.49998130  0.40444060    -0.17600
C2154       C  0.88503554  0.99994858  0.38597577     0.06500
C2155       C  0.86341484  0.99994856  0.36435302     0.08300
C2156       C  0.84495102  0.49998226  0.34588646    -0.18400
C2157       C  0.59495000  0.49919434  0.40443611    -0.17600
C2158       C  0.61341688  0.49922942  0.38597181     0.06500
C2159       C  0.63504106  0.49922986  0.36435071     0.08300
C2160       C  0.65350685  0.49919723  0.34588567    -0.18400
C2161       C  0.65349761  0.49998543  0.15444262    -0.17600
C2162       C  0.63503203  0.49995315  0.13597816     0.06500
C2163       C  0.61341051  0.49995094  0.11435629     0.08300
C2164       C  0.59494613  0.49998186  0.09589036    -0.18400
C2165       C  0.90350109  0.49919886  0.09588104    -0.17600
C2166       C  0.88503666  0.49923320  0.11434750     0.06500
C2167       C  0.86341626  0.49923409  0.13597245     0.08300
C2168       C  0.84495223  0.49919866  0.15443961    -0.18400
C2169       C  0.49883606  0.59530164  0.40443007    -0.17600
C2170       C  0.49886905  0.61376766  0.38596454     0.06500
C2171       C  0.99886828  0.63539332  0.36434331     0.08300
C2172       C  0.49883538  0.65386106  0.34587977    -0.18400
C2173       C  0.49961920  0.90386095  0.40443619    -0.17600
C2174       C  0.49958746  0.88539515  0.38597209     0.06500
C2175       C  0.99958928  0.86377185  0.36435179     0.08300
C2176       C  0.49962381  0.84530607  0.34588752    -0.18400
C2177       C  0.49883720  0.84530701  0.15443626    -0.17600
C2178       C  0.49886937  0.86377321  0.13597084     0.06500
C2179       C  0.49886711  0.88539728  0.11434788     0.08300
C2180       C  0.49883363  0.90386323  0.09588245    -0.18400
C2181       C  0.49961765  0.59530999  0.09588224    -0.17600
C2182       C  0.49958413  0.61377540  0.11434686     0.06500
C2183       C  0.99958511  0.63539758  0.13596829     0.08300
C2184       C  0.49961890  0.65386246  0.15443335    -0.18400
O2185       O  0.49952697  0.54673730  0.58253755    -0.85600
O2186       O  0.49892226  0.54672851  0.91777911    -0.85700
O2187       O  0.54637803  0.58195969  0.50046259    -0.87400
O2188       O  0.95207654  0.58195951  0.49986654    -0.86200
O2189       O  0.91684432  0.54673300  0.49985362    -0.85800
O2190       O  0.58160841  0.54673121  0.50046031    -0.87100
O2191       O  0.49893006  0.58195797  0.95300801    -0.85600
O2192       O  0.49951874  0.58196424  0.54730671    -0.85200
Zr2193     Zr  0.49922885  0.55808917  0.50015776     2.84300
O2194       O  0.96988967  0.52891775  0.97082397    -1.07200
O2195       O  0.52856422  0.52892070  0.52949863    -1.07900
C2196       C  0.49959210  0.57333404  0.57390557     1.07500
C2197       C  0.49885798  0.57332611  0.92640921     1.07500
C2198       C  0.57297716  0.57332864  0.50052974     1.10500
C2199       C  0.92547685  0.57332932  0.49979018     1.08200
H2200       H  0.54068778  0.54103932  0.95870005     0.33800
O2201       O  0.52861237  0.52896563  0.97077552    -1.28100
H2202       H  0.95777927  0.54102977  0.54160499     0.33500
O2203       O  0.96985748  0.52895270  0.52952789    -1.29800
O2204       O  0.49951727  0.95243398  0.91778116    -0.85600
O2205       O  0.49892731  0.95243717  0.58253610    -0.87100
O2206       O  0.58160474  0.49928668  0.95301150    -0.85600
O2207       O  0.91684514  0.49989121  0.95301288    -0.85700
O2208       O  0.91684569  0.49928641  0.54730735    -0.85400
O2209       O  0.58160401  0.49987764  0.54731460    -0.85200
O2210       O  0.54637413  0.91720577  0.49985056    -0.85600
O2211       O  0.95207500  0.91721212  0.50045129    -0.85100
O2212       O  0.58160548  0.95243319  0.49987280    -0.86100
O2213       O  0.91684480  0.95244104  0.50045580    -0.85300
O2214       O  0.54637449  0.49927904  0.91778006    -0.85700
O2215       O  0.54637268  0.49989159  0.58254442    -0.85400
O2216       O  0.95207673  0.49929564  0.58253801    -0.85000
O2217       O  0.95207619  0.49987538  0.91778276    -0.85500
O2218       O  0.49952551  0.91720602  0.95301076    -0.85700
O2219       O  0.49892618  0.91720806  0.54730641    -0.87100
Zr2220     Zr  0.49922800  0.49958406  0.94165229     2.83100
Zr2221     Zr  0.49922667  0.49958655  0.55866907     2.83500
Zr2222     Zr  0.55773500  0.49958390  0.50016148     2.84100
Zr2223     Zr  0.94071569  0.49958717  0.50016022     2.83400
Zr2224     Zr  0.49922698  0.94107841  0.50015970     2.84200
O2225       O  0.96989160  0.97025379  0.52949295    -1.07700
O2226       O  0.52856372  0.97024729  0.97082358    -1.07200
C2227       C  0.49959128  0.92583695  0.92641245     1.07500
C2228       C  0.49885781  0.92583961  0.57390495     1.10100
C2229       C  0.57297309  0.49921505  0.92641259     1.07700
C2230       C  0.92547751  0.49995363  0.92641520     1.08000
C2231       C  0.92547796  0.49922239  0.57390546     1.07600
C2232       C  0.57297125  0.49995448  0.57391302     1.07200
C2233       C  0.57297314  0.92583602  0.49979264     1.07600
C2234       C  0.92547614  0.92584415  0.50052247     1.07100
H2235       H  0.54067558  0.95813505  0.54161279     0.33800
O2236       O  0.52859939  0.97021147  0.52953547    -1.28800
H2237       H  0.95778223  0.95814615  0.95871948     0.33800
O2238       O  0.96986168  0.97022353  0.97079790    -1.30100
O2239       O  0.49951866  0.70243520  0.66777991    -0.85600
O2240       O  0.49892970  0.70243557  0.83253562    -0.85700
O2241       O  0.54637631  0.66720840  0.74984887    -0.87400
O2242       O  0.95207657  0.66720908  0.75045098    -0.86200
O2243       O  0.91684562  0.70243729  0.75045634    -0.85800
O2244       O  0.58160645  0.70243695  0.74987072    -0.87100
O2245       O  0.49892643  0.66720783  0.79730454    -0.85600
O2246       O  0.49952568  0.66720598  0.70300840    -0.85200
Zr2247     Zr  0.49922733  0.69107794  0.75015761     2.84300
O2248       O  0.96989250  0.72025270  0.77949171    -1.07200
O2249       O  0.52856372  0.72024843  0.72082278    -1.07900
C2250       C  0.49959195  0.67583778  0.67641036     1.07500
C2251       C  0.49885932  0.67583841  0.82390338     1.07500
C2252       C  0.57297505  0.67583964  0.74979065     1.10500
C2253       C  0.92547749  0.67584043  0.75052331     1.08200
H2254       H  0.54067592  0.70813406  0.79161081     0.33800
O2255       O  0.52859944  0.72021047  0.77953427    -1.28100
H2256       H  0.95778294  0.70814613  0.70871709     0.33500
O2257       O  0.96986217  0.72022352  0.72079602    -1.29800
O2258       O  0.49953215  0.79673367  0.83254098    -0.85600
O2259       O  0.49892582  0.79673275  0.66778213    -0.87100
O2260       O  0.58160537  0.74987621  0.79731238    -0.85600
O2261       O  0.91684820  0.74928365  0.79730913    -0.85700
O2262       O  0.91684597  0.74989170  0.70301067    -0.85400
O2263       O  0.58160837  0.74928965  0.70301564    -0.85200
O2264       O  0.54637540  0.83195999  0.75046545    -0.85600
O2265       O  0.95207550  0.83195980  0.74987317    -0.85100
O2266       O  0.58160658  0.79673252  0.75046127    -0.86100
O2267       O  0.91684458  0.79673194  0.74985429    -0.85300
O2268       O  0.54637459  0.74988867  0.83254245    -0.85700
O2269       O  0.54637879  0.74927998  0.66778369    -0.85400
O2270       O  0.95207752  0.74987821  0.66778081    -0.85000
O2271       O  0.95207942  0.74929414  0.83253983    -0.85500
O2272       O  0.49952063  0.83196182  0.79731158    -0.85700
O2273       O  0.49892754  0.83196021  0.70301323    -0.87100
Zr2274     Zr  0.49922762  0.74958480  0.80866907     2.83100
Zr2275     Zr  0.49922895  0.74958564  0.69165161     2.83500
Zr2276     Zr  0.55773362  0.74958545  0.75016176     2.84100
Zr2277     Zr  0.94071510  0.74958511  0.75015975     2.83400
Zr2278     Zr  0.49922689  0.80808879  0.75016130     2.84200
O2279       O  0.96988990  0.77891676  0.72082554    -1.07700
O2280       O  0.52856431  0.77892155  0.77950097    -1.07200
C2281       C  0.49959671  0.82333072  0.82391014     1.07500
C2282       C  0.49885881  0.82332995  0.67641394     1.10100
C2283       C  0.57297299  0.74995137  0.82391072     1.07700
C2284       C  0.92548071  0.74922010  0.82390733     1.08000
C2285       C  0.92547866  0.74995603  0.67641292     1.07600
C2286       C  0.57297737  0.74921721  0.67641678     1.07200
C2287       C  0.57297469  0.82332966  0.75053128     1.07600
C2288       C  0.92547622  0.82332867  0.74979412     1.07100
H2289       H  0.54068623  0.79104203  0.70870219     0.33800
O2290       O  0.52861081  0.77896757  0.72077685    -1.28800
H2291       H  0.95777779  0.79102671  0.79160743     0.33800
O2292       O  0.96985607  0.77895015  0.77952939    -1.30100
O2293       O  0.83160767  0.99929083  0.70301507    -0.85600
O2294       O  0.66684247  0.99989081  0.70301469    -0.85700
O2295       O  0.74952325  0.95243834  0.66777451    -0.87400
O2296       O  0.74893303  0.54673124  0.66778026    -0.86200
O2297       O  0.74893527  0.58195870  0.70301121    -0.85800
O2298       O  0.74953043  0.91720989  0.70300376    -0.87100
O2299       O  0.70207334  0.99987840  0.66778410    -0.85600
O2300       O  0.79637696  0.99928005  0.66778419    -0.85200
Zr2301     Zr  0.74922695  0.99958527  0.69165138     2.84300
O2302       O  0.71988742  0.52891720  0.72082430    -1.07200
O2303       O  0.77856198  0.97024881  0.72082299    -1.07900
C2304       C  0.82297576  0.99921812  0.67641648     1.07500
C2305       C  0.67547465  0.99995568  0.67641689     1.07500
C2306       C  0.74959849  0.92584118  0.67640532     1.10500
C2307       C  0.74886968  0.57332844  0.67641201     1.08200
H2308       H  0.70778082  0.95814611  0.70871766     0.33800
O2309       O  0.71986021  0.97022346  0.72079654    -1.28100
H2310       H  0.79068554  0.54104033  0.70870149     0.33500
O2311       O  0.77860979  0.52896621  0.72077607    -1.29800
O2312       O  0.66684904  0.99928626  0.79731140    -0.85600
O2313       O  0.83160741  0.99988000  0.79731095    -0.87100
O2314       O  0.70207378  0.91721053  0.75044864    -0.85600
O2315       O  0.70207609  0.58196090  0.74986936    -0.85700
O2316       O  0.79637180  0.58196343  0.75046295    -0.85400
O2317       O  0.79637448  0.91720659  0.74984747    -0.85200
O2318       O  0.74894054  0.95243722  0.83253707    -0.85600
O2319       O  0.74953491  0.54673321  0.83254039    -0.85100
O2320       O  0.74893119  0.91720943  0.79730588    -0.86100
O2321       O  0.74952264  0.58196041  0.79731005    -0.85300
O2322       O  0.66684368  0.95243975  0.75045944    -0.85700
O2323       O  0.83160438  0.95243556  0.74987055    -0.85400
O2324       O  0.83160225  0.54673533  0.75046179    -0.85000
O2325       O  0.66684490  0.54673343  0.74985601    -0.85500
O2326       O  0.70208172  0.99929400  0.83254061    -0.85700
O2327       O  0.79637718  0.99989308  0.83254136    -0.87100
Zr2328     Zr  0.69071469  0.99958608  0.75016150     2.83100
Zr2329     Zr  0.80773327  0.99958548  0.75016123     2.83500
Zr2330     Zr  0.74922614  0.94107740  0.75015691     2.84100
Zr2331     Zr  0.74922623  0.55808825  0.75015948     2.83400
Zr2332     Zr  0.74922934  0.99958501  0.80866868     2.84200
O2333       O  0.77856426  0.52892202  0.77949964    -1.07700
O2334       O  0.71989274  0.97025283  0.77949237    -1.07200
C2335       C  0.67548266  0.99922147  0.82390919     1.07500
C2336       C  0.82297558  0.99995639  0.82390948     1.10100
C2337       C  0.67547488  0.92584278  0.75052338     1.07700
C2338       C  0.67547678  0.57333004  0.74979323     1.08000
C2339       C  0.82297086  0.57333271  0.75053062     1.07600
C2340       C  0.82297319  0.92583807  0.74978952     1.07200
C2341       C  0.74886967  0.92584012  0.82390488     1.07600
C2342       C  0.74959962  0.57332991  0.82390879     1.07100
H2343       H  0.79067657  0.95813410  0.79160929     0.33800
O2344       O  0.77859927  0.97021014  0.77953299    -1.28800
H2345       H  0.70777916  0.54102780  0.79160801     0.33800
O2346       O  0.71985674  0.52895079  0.77952994    -1.30100
O2347       O  0.70207582  0.66721114  0.00045391    -0.86800
O2348       O  0.70207282  0.83195746  0.99987201    -0.85700
O2349       O  0.66684752  0.74928570  0.54730945    -0.87400
O2350       O  0.66684181  0.74988715  0.95301453    -0.86200
O2351       O  0.70207209  0.74987294  0.91778348    -0.85800
O2352       O  0.70207981  0.74929397  0.58253888    -0.87100
O2353       O  0.66684248  0.79672909  0.99985545    -0.85600
O2354       O  0.66684408  0.70243862  0.00045974    -0.85200
Zr2355     Zr  0.69071491  0.74958418  0.00016075     2.84300
O2356       O  0.71988658  0.77891630  0.97082324    -1.07200
O2357       O  0.71989197  0.72025137  0.52949331    -1.07900
C2358       C  0.67547657  0.67584219  0.00052671     1.07500
C2359       C  0.67547373  0.82332575  0.99979493     1.07500
C2360       C  0.67548083  0.74922162  0.57390730     1.10500
C2361       C  0.67547353  0.74995002  0.92641663     1.08200
H2362       H  0.70777810  0.79102691  0.54160631     0.33800
O2363       O  0.71985599  0.77895033  0.52952838    -1.28100
H2364       H  0.70778204  0.70814327  0.95871937     0.33500
O2365       O  0.71986134  0.72022146  0.97079745    -1.29800
O2366       O  0.79637117  0.83196461  0.00046237    -0.85600
O2367       O  0.79637811  0.66720950  0.99984931    -0.87100
O2368       O  0.74953216  0.79673339  0.58253938    -0.85600
O2369       O  0.74892959  0.79672978  0.91777952    -0.85700
O2370       O  0.74951852  0.70243268  0.91777992    -0.85400
O2371       O  0.74894063  0.70243833  0.58253770    -0.85200
O2372       O  0.83160429  0.74988180  0.54731217    -0.85600
O2373       O  0.83160517  0.74929307  0.95301169    -0.85100
O2374       O  0.79637405  0.74989425  0.58254275    -0.86100
O2375       O  0.79637426  0.74927675  0.91778087    -0.85300
O2376       O  0.74952172  0.83196041  0.54730885    -0.85700
O2377       O  0.74893585  0.66720928  0.54730801    -0.85400
O2378       O  0.74952890  0.66720501  0.95301003    -0.85000
O2379       O  0.74893225  0.83195852  0.95300936    -0.85500
O2380       O  0.83160307  0.79673792  0.00045920    -0.85700
O2381       O  0.83160710  0.70243941  0.99986927    -0.87100
Zr2382     Zr  0.74922516  0.80808849  0.00015811     2.83100
Zr2383     Zr  0.74922827  0.69107766  0.00015930     2.83500
Zr2384     Zr  0.74922802  0.74958538  0.55866794     2.84100
Zr2385     Zr  0.74922583  0.74958348  0.94165080     2.83400
Zr2386     Zr  0.80773361  0.74958801  0.00016007     2.84200
O2387       O  0.77856232  0.72024958  0.97082359    -1.07700
O2388       O  0.77856305  0.77892267  0.52949862    -1.07200
C2389       C  0.82297073  0.82333505  0.00052871     1.07500
C2390       C  0.82297661  0.67584169  0.99978977     1.10100
C2391       C  0.74959782  0.82333001  0.57390764     1.07700
C2392       C  0.74886576  0.82332732  0.92641038     1.08000
C2393       C  0.74959439  0.67583566  0.92641154     1.07600
C2394       C  0.74887277  0.67584093  0.57390667     1.07200
C2395       C  0.82297238  0.74995798  0.57391081     1.07600
C2396       C  0.82297311  0.74921717  0.92641304     1.07100
H2397       H  0.79067837  0.70813703  0.54160986     0.33800
O2398       O  0.77860066  0.72021247  0.52953317    -1.28800
H2399       H  0.79068352  0.79104057  0.95869929     0.33800
O2400       O  0.77860845  0.77896647  0.97077437    -1.30100
C2401       C  0.74885689  0.65386502  0.59588456    -0.17600
C2402       C  0.74889413  0.63539901  0.61434981     0.06500
C2403       C  0.74889478  0.61377344  0.63597108     0.08300
C2404       C  0.74885682  0.59530570  0.65443483    -0.18400
C2405       C  0.74962924  0.90386528  0.65442861    -0.17600
C2406       C  0.74959670  0.88539832  0.63596552     0.06500
C2407       C  0.74959528  0.86377293  0.61434721     0.08300
C2408       C  0.74962697  0.84530584  0.59588427    -0.18400
C2409       C  0.74885107  0.84530365  0.90443209    -0.17600
C2410       C  0.74888801  0.86377023  0.88596710     0.06500
C2411       C  0.74888761  0.88539581  0.86434574     0.08300
C2412       C  0.74885178  0.90386302  0.84588164    -0.18400
C2413       C  0.74962778  0.59530552  0.84588567    -0.17600
C2414       C  0.74959382  0.61377103  0.86435016     0.06500
C2415       C  0.74959234  0.63539380  0.88597100     0.08300
C2416       C  0.74962382  0.65385938  0.90443540    -0.18400
C2417       C  0.84494823  0.59530935  0.75055239    -0.17600
C2418       C  0.86341330  0.61377541  0.75051792     0.06500
C2419       C  0.88503513  0.63539916  0.75051826     0.08300
C2420       C  0.90350008  0.65386496  0.75055032    -0.18400
C2421       C  0.90349827  0.84530369  0.74976732    -0.17600
C2422       C  0.88503415  0.86377016  0.74979901     0.06500
C2423       C  0.86341411  0.88539504  0.74979786     0.08300
C2424       C  0.84495004  0.90386167  0.74976415    -0.18400
C2425       C  0.65349914  0.59530514  0.74976771    -0.17600
C2426       C  0.63503493  0.61377138  0.74980103     0.06500
C2427       C  0.61341504  0.63539614  0.74980074     0.08300
C2428       C  0.59495144  0.65386306  0.74976646    -0.18400
C2429       C  0.59495119  0.84530698  0.75055179    -0.17600
C2430       C  0.61341364  0.86377553  0.75051628     0.06500
C2431       C  0.63503255  0.88540193  0.75051644     0.08300
C2432       C  0.65349679  0.90386827  0.75054929    -0.18400
C2433       C  0.90350197  0.74998564  0.65443797    -0.17600
C2434       C  0.88503586  0.74995347  0.63597387     0.06500
C2435       C  0.86341322  0.74995235  0.61435288     0.08300
C2436       C  0.84494800  0.74998469  0.59588764    -0.18400
C2437       C  0.65350510  0.74919892  0.59588382    -0.17600
C2438       C  0.63504139  0.74923307  0.61435095     0.06500
C2439       C  0.61342041  0.74923311  0.63597526     0.08300
C2440       C  0.59495489  0.74919739  0.65444093    -0.18400
C2441       C  0.59494792  0.74997583  0.84588770    -0.17600
C2442       C  0.61341130  0.74994243  0.86435449     0.06500
C2443       C  0.63503127  0.74994361  0.88597768     0.08300
C2444       C  0.65349625  0.74997709  0.90444264    -0.18400
C2445       C  0.90350401  0.74919608  0.84588298    -0.17600
C2446       C  0.88503847  0.74922997  0.86434832     0.06500
C2447       C  0.86341561  0.74923101  0.88597084     0.08300
C2448       C  0.84494979  0.74919650  0.90443625    -0.18400
C2449       C  0.84494730  0.84531278  0.50054940    -0.17600
C2450       C  0.86341161  0.86377974  0.00051402     0.06500
C2451       C  0.88503296  0.88540402  0.00051425     0.08300
C2452       C  0.90349820  0.90386944  0.50054744    -0.18400
C2453       C  0.84495389  0.65386563  0.49976404    -0.17600
C2454       C  0.86341740  0.63539843  0.49979688     0.06500
C2455       C  0.88503633  0.61377241  0.49979632     0.08300
C2456       C  0.90349963  0.59530508  0.49976345    -0.18400
C2457       C  0.65349555  0.84529993  0.49977050    -0.17600
C2458       C  0.63503101  0.86376582  0.99980402     0.06500
C2459       C  0.61341142  0.88539077  0.99980328     0.08300
C2460       C  0.59494859  0.90385839  0.49976861    -0.18400
C2461       C  0.65349962  0.65386679  0.50055368    -0.17600
C2462       C  0.63503605  0.63539989  0.50052066     0.06500
C2463       C  0.61341726  0.61377345  0.50051868     0.08300
C2464       C  0.59495433  0.59530538  0.50055202    -0.18400
C2465       C  0.90350073  0.49998136  0.90444066    -0.17600
C2466       C  0.88503553  0.99994860  0.88597581     0.06500
C2467       C  0.86341492  0.99994845  0.86435296     0.08300
C2468       C  0.84495106  0.49998221  0.84588643    -0.18400
C2469       C  0.59495007  0.49919441  0.90443616    -0.17600
C2470       C  0.61341689  0.49922949  0.88597178     0.06500
C2471       C  0.63504104  0.49922987  0.86435062     0.08300
C2472       C  0.65350685  0.49919717  0.84588562    -0.18400
C2473       C  0.65349767  0.49998549  0.65444253    -0.17600
C2474       C  0.63503199  0.49995322  0.63597819     0.06500
C2475       C  0.61341047  0.49995100  0.61435637     0.08300
C2476       C  0.59494615  0.49998193  0.59589036    -0.18400
C2477       C  0.90350108  0.49919893  0.59588099    -0.17600
C2478       C  0.88503662  0.49923321  0.61434743     0.06500
C2479       C  0.86341625  0.49923403  0.63597242     0.08300
C2480       C  0.84495222  0.49919867  0.65443958    -0.18400
C2481       C  0.49883600  0.59530157  0.90443006    -0.17600
C2482       C  0.49886901  0.61376753  0.88596447     0.06500
C2483       C  0.99886825  0.63539326  0.86434329     0.08300
C2484       C  0.49883548  0.65386105  0.84587979    -0.18400
C2485       C  0.49961917  0.90386099  0.90443620    -0.17600
C2486       C  0.49958738  0.88539515  0.88597211     0.06500
C2487       C  0.99958937  0.86377183  0.86435180     0.08300
C2488       C  0.49962386  0.84530602  0.84588754    -0.18400
C2489       C  0.49883711  0.84530699  0.65443627    -0.17600
C2490       C  0.49886934  0.86377318  0.63597085     0.06500
C2491       C  0.49886721  0.88539731  0.61434795     0.08300
C2492       C  0.49883375  0.90386324  0.59588251    -0.18400
C2493       C  0.49961774  0.59531000  0.59588219    -0.17600
C2494       C  0.49958424  0.61377543  0.61434681     0.06500
C2495       C  0.99958516  0.63539761  0.63596824     0.08300
C2496       C  0.49961894  0.65386250  0.65443331    -0.18400
loop_ 
_geom_bond_atom_site_label_1 
_geom_bond_atom_site_label_2 
_geom_bond_distance 
_geom_bond_site_symmetry_2 
_ccdc_geom_bond_type 
O1          Zr37   2.439   1_545  S
O1           C12   1.291       .  A
O2          Zr36   2.439   1_545  S
O2           C13   1.291       .  A
O3           Zr9   2.439   1_455  S
O3           C14   1.291       .  A
O4        Zr1257   2.439   1_556  S
O4           C15   1.291       .  A
O5          Zr39   2.439   1_546  S
O5           C15   1.291       .  A
O6          Zr38   2.439   1_545  S
O6           C14   1.291       .  A
O7         Zr321   2.439       .  S
O7           C13   1.291       .  A
O8           Zr9   2.439       .  S
O8           C12   1.291       .  A
Zr9        O1252   2.439   1_554  S
Zr9         O319   2.439   1_554  S
Zr9          O11   2.341   1_655  S
Zr9        O1570   2.341   1_554  S
Zr9        O1267   2.342       .  S
Zr9         O329   2.342   1_654  S
O10       Zr1569   2.341       .  S
O10       Zr1284   2.341   1_545  S
O10        Zr351   2.341   1_545  S
O11         Zr37   2.341   1_445  S
O11         Zr38   2.341   1_545  S
C12         C309   1.435       .  S
C13         C297   1.435       .  S
C14         C280   1.435       .  S
C15         C272   1.435       .  S
H16          O17   0.965       .  S
O17         Zr36   2.342   1_445  S
O17        Zr321   2.342   1_455  S
O17        Zr350   2.342   1_545  S
H18          O19   0.966       .  S
O19         Zr39   2.342   1_545  S
O19       Zr1257   2.342       .  S
O19       Zr1285   2.342   1_545  S
O20        Zr660   2.439       .  S
O20          C43   1.291       .  A
O21        Zr661   2.439       .  S
O21          C44   1.291       .  A
O22        Zr350   2.439       .  S
O22          C45   1.291       .  A
O23        Zr351   2.439       .  S
O23          C46   1.291       .  A
O24         Zr39   2.439       .  S
O24          C47   1.291       .  A
O25         Zr38   2.439       .  S
O25          C48   1.291       .  A
O26         Zr40   2.439   1_456  S
O26          C49   1.291       .  A
O27       Zr1288   2.439       .  S
O27          C50   1.291       .  A
O28        Zr662   2.439   1_556  S
O28          C49   1.291       .  A
O29        Zr663   2.439       .  S
O29          C50   1.291       .  A
O30         Zr36   2.439   1_455  S
O30          C45   1.291       .  A
O31         Zr37   2.439   1_455  S
O31          C48   1.291       .  A
O32       Zr1285   2.439       .  S
O32          C47   1.291       .  A
O33       Zr1284   2.439       .  S
O33          C46   1.291       .  A
O34        Zr352   2.439       .  S
O34          C43   1.291       .  A
O35         Zr40   2.439       .  S
O35          C44   1.291       .  A
Zr36        O644   2.439       .  S
Zr36       O1281   2.439       .  S
Zr36       O1258   2.341   1_565  S
Zr36        O666   2.341   1_655  S
Zr36       O1926   2.342       .  S
Zr37        O645   2.439       .  S
Zr37       O1280   2.439       .  S
Zr37       O1267   2.342   1_565  S
Zr37       O1913   2.341       .  S
Zr37        O676   2.342   1_655  S
Zr38        O334   2.439   1_554  S
Zr38        O652   2.439   1_554  S
Zr38        O329   2.342   1_564  S
Zr38        O978   2.341   1_554  S
Zr38        O676   2.342       .  S
Zr39        O335   2.439   1_554  S
Zr39        O653   2.439       .  S
Zr39        O322   2.341   1_564  S
Zr39        O665   2.341       .  S
Zr39        O990   2.342   1_554  S
Zr40       O1275   2.439       .  S
Zr40        O346   2.439   1_554  S
Zr40         O52   2.342   1_655  S
Zr40       O1289   2.341       .  S
Zr40        O354   2.341   1_654  S
Zr40       O1614   2.342   1_554  S
O41       Zr1909   2.341       .  S
O41        Zr663   2.341       .  S
O41       Zr1288   2.341       .  S
O42        Zr660   2.341   1_455  S
O42        Zr974   2.341       .  S
O42        Zr352   2.341   1_455  S
C43         C301   1.435       .  S
C44         C308   1.435       .  S
C45         C285   1.435       .  S
C46         C281   1.434       .  S
C47         C293   1.434       .  S
C48         C292   1.434       .  S
C49         C276   1.435       .  S
C50         C268   1.435       .  S
H51          O52   0.965       .  S
O52        Zr661   2.342   1_455  S
O52        Zr662   2.342       .  S
H53          O54   0.966       .  S
O54       Zr1908   2.342       .  S
O54        Zr975   2.342       .  S
O54       Zr1600   2.342       .  S
O55         Zr91   2.439       .  S
O55          C66   1.291       .  A
O56         Zr90   2.439       .  S
O56          C67   1.291       .  A
O57         Zr63   2.439   1_455  S
O57          C68   1.291       .  A
O58       Zr1311   2.439       .  S
O58          C69   1.291       .  A
O59         Zr93   2.439       .  S
O59          C69   1.291       .  A
O60         Zr92   2.439       .  S
O60          C68   1.291       .  A
O61         Zr63   2.439       .  S
O61          C67   1.291       .  A
O62         Zr63   2.439       .  S
O62          C66   1.291       .  A
Zr63       O1306   2.439       .  S
Zr63         O65   2.341   1_655  S
Zr63         O71   2.342   1_655  S
Zr63       O1312   2.341       .  S
Zr63       O1321   2.342       .  S
O64         Zr93   2.341       .  S
O64       Zr1311   2.341       .  S
O64       Zr1338   2.341       .  S
O65         Zr91   2.341   1_455  S
O65         Zr92   2.341       .  S
C66         C312   1.435       .  S
C67         C300   1.435       .  S
C68         C244   1.435       .  S
C69         C236   1.435       .  S
H70          O71   0.965       .  S
O71         Zr90   2.342   1_455  S
O71         Zr92   2.342       .  S
H72          O73   0.966       .  S
O73         Zr93   2.342       .  S
O73       Zr1311   2.342       .  S
O73       Zr1339   2.342       .  S
O74         Zr90   2.439       .  S
O74          C97   1.291       .  A
O75         Zr91   2.439       .  S
O75          C98   1.291       .  A
O76         Zr92   2.439       .  S
O76          C99   1.291       .  A
O77         Zr93   2.439       .  S
O77         C100   1.291       .  A
O78         Zr93   2.439       .  S
O78         C101   1.291       .  A
O79         Zr92   2.439       .  S
O79         C102   1.291       .  A
O80         Zr94   2.439   1_455  S
O80         C103   1.291       .  A
O81       Zr1342   2.439       .  S
O81         C104   1.291       .  A
O82         Zr92   2.439       .  S
O82         C103   1.291       .  A
O83         Zr93   2.439       .  S
O83         C104   1.291       .  A
O84         Zr90   2.439   1_455  S
O84          C99   1.291       .  A
O85         Zr91   2.439   1_455  S
O85         C102   1.291       .  A
O86       Zr1339   2.439       .  S
O86         C101   1.291       .  A
O87       Zr1338   2.439       .  S
O87         C100   1.291       .  A
O88         Zr94   2.439       .  S
O88          C97   1.291       .  A
O89         Zr94   2.439       .  S
O89          C98   1.291       .  A
Zr90       O1335   2.439       .  S
Zr90         O96   2.341   1_655  S
Zr90       O1312   2.341       .  S
Zr90       O1356   2.342       .  S
Zr91       O1334   2.439       .  S
Zr91        O106   2.342   1_655  S
Zr91       O1321   2.342       .  S
Zr91       O1343   2.341       .  S
Zr92         O96   2.341       .  S
Zr92        O106   2.342       .  S
Zr93         O95   2.341       .  S
Zr93        O108   2.342       .  S
Zr94       O1329   2.439       .  S
Zr94         O96   2.341   1_655  S
Zr94        O106   2.342   1_655  S
Zr94       O1343   2.341       .  S
Zr94       O1356   2.342       .  S
O95       Zr1339   2.341       .  S
O95       Zr1342   2.341       .  S
C97         C304   1.435       .  S
C98         C305   1.435       .  S
C99         C257   1.434       .  S
C100        C261   1.434       .  S
C101        C249   1.434       .  S
C102        C256   1.435       .  S
C103        C245   1.435       .  S
C104        C237   1.435       .  S
H105        O106   0.965       .  S
H107        O108   0.966       .  S
O108      Zr1338   2.342       .  S
O108      Zr1342   2.342       .  S
O109       Zr145   2.439       .  S
O109        C120   1.291       .  A
O110       Zr144   2.439       .  S
O110        C121   1.291       .  A
O111       Zr117   2.439       .  S
O111        C122   1.291       .  A
O112       Zr741   2.439   1_545  S
O112        C123   1.291       .  A
O113       Zr147   2.439       .  S
O113        C123   1.291       .  A
O114       Zr146   2.439       .  S
O114        C122   1.291       .  A
O115       Zr117   2.439       .  S
O115        C121   1.291       .  A
O116       Zr117   2.439       .  S
O116        C120   1.291       .  A
Zr117       O736   2.439       .  S
Zr117       O119   2.341       .  S
Zr117       O125   2.342       .  S
Zr117       O742   2.341       .  S
Zr117       O751   2.342       .  S
O118       Zr147   2.341       .  S
O118       Zr741   2.341   1_545  S
O118       Zr768   2.341   1_545  S
O119       Zr145   2.341       .  S
O119       Zr146   2.341       .  S
C120        C920   1.435       .  S
C121        C913   1.434       .  S
C122        C221   1.435       .  S
C123        C220   1.435       .  S
H124        O125   0.966       .  S
O125       Zr144   2.342       .  S
O125       Zr146   2.342       .  S
H126        O127   0.965       .  S
O127       Zr147   2.342       .  S
O127       Zr741   2.342   1_545  S
O127       Zr769   2.342   1_545  S
O128       Zr144   2.439       .  S
O128        C151   1.291       .  A
O129       Zr145   2.439       .  S
O129        C152   1.291       .  A
O130       Zr146   2.439       .  S
O130        C153   1.291       .  A
O131       Zr147   2.439       .  S
O131        C154   1.291       .  A
O132       Zr147   2.439       .  S
O132        C155   1.291       .  A
O133       Zr146   2.439       .  S
O133        C156   1.291       .  A
O134       Zr148   2.439       .  S
O134        C157   1.291       .  A
O135       Zr772   2.439   1_545  S
O135        C158   1.291       .  A
O136       Zr146   2.439       .  S
O136        C157   1.291       .  A
O137       Zr147   2.439       .  S
O137        C158   1.291       .  A
O138       Zr144   2.439       .  S
O138        C153   1.291       .  A
O139       Zr145   2.439       .  S
O139        C156   1.291       .  A
O140       Zr769   2.439   1_545  S
O140        C155   1.291       .  A
O141       Zr768   2.439   1_545  S
O141        C154   1.291       .  A
O142       Zr148   2.439       .  S
O142        C151   1.291       .  A
O143       Zr148   2.439       .  S
O143        C152   1.291       .  A
Zr144       O765   2.439       .  S
Zr144       O150   2.341       .  S
Zr144       O742   2.341       .  S
Zr144       O786   2.342       .  S
Zr145       O764   2.439       .  S
Zr145       O160   2.342       .  S
Zr145       O751   2.342       .  S
Zr145       O773   2.341       .  S
Zr146       O150   2.341       .  S
Zr146       O160   2.342       .  S
Zr147       O149   2.341       .  S
Zr147       O162   2.342       .  S
Zr148       O759   2.439       .  S
Zr148       O150   2.341       .  S
Zr148       O160   2.342       .  S
Zr148       O773   2.341       .  S
Zr148       O786   2.342       .  S
O149       Zr769   2.341   1_545  S
O149       Zr772   2.341   1_545  S
C151        C912   1.434       .  S
C152        C908   1.434       .  S
C153        C248   1.435       .  S
C154        C241   1.435       .  S
C155        C233   1.435       .  S
C156        C240   1.435       .  S
C157        C228   1.435       .  S
C158        C229   1.435       .  S
H159        O160   0.965       .  S
H161        O162   0.966       .  S
O162       Zr768   2.342   1_545  S
O162       Zr772   2.342   1_545  S
O163       Zr199   2.439       .  S
O163        C174   1.291       .  A
O164       Zr198   2.439       .  S
O164        C175   1.291       .  A
O165       Zr483   2.439       .  S
O165        C176   1.291       .  A
O166       Zr171   2.439       .  S
O166        C177   1.291       .  A
O167       Zr201   2.439       .  S
O167        C177   1.291       .  A
O168       Zr200   2.439       .  S
O168        C176   1.291       .  A
O169       Zr171   2.439       .  S
O169        C175   1.291       .  A
O170       Zr171   2.439       .  S
O170        C174   1.291       .  A
Zr171       O477   2.439       .  S
Zr171       O172   2.341       .  S
Zr171       O181   2.342       .  S
Zr171       O485   2.341       .  S
Zr171       O491   2.342       .  S
O172       Zr198   2.341       .  S
O172       Zr201   2.341       .  S
O173       Zr200   2.341       .  S
O173       Zr483   2.341       .  S
O173       Zr511   2.341       .  S
C174        C589   1.435       .  S
C175        C585   1.435       .  S
C176        C253   1.434       .  S
C177        C260   1.434       .  S
H178        O179   0.966       .  S
O179       Zr200   2.342       .  S
O179       Zr483   2.342       .  S
O179       Zr510   2.342       .  S
H180        O181   0.966       .  S
O181       Zr199   2.342       .  S
O181       Zr201   2.342       .  S
O182       Zr198   2.439       .  S
O182        C205   1.291       .  A
O183       Zr199   2.439       .  S
O183        C206   1.291       .  A
O184       Zr200   2.439       .  S
O184        C207   1.291       .  A
O185       Zr201   2.439       .  S
O185        C208   1.291       .  A
O186       Zr201   2.439       .  S
O186        C209   1.291       .  A
O187       Zr200   2.439       .  S
O187        C210   1.291       .  A
O188       Zr514   2.439       .  S
O188        C211   1.291       .  A
O189       Zr202   2.439       .  S
O189        C212   1.291       .  A
O190       Zr200   2.439       .  S
O190        C211   1.291       .  A
O191       Zr201   2.439       .  S
O191        C212   1.291       .  A
O192       Zr510   2.439       .  S
O192        C207   1.291       .  A
O193       Zr511   2.439       .  S
O193        C210   1.291       .  A
O194       Zr199   2.439       .  S
O194        C209   1.291       .  A
O195       Zr198   2.439       .  S
O195        C208   1.291       .  A
O196       Zr202   2.439       .  S
O196        C205   1.291       .  A
O197       Zr202   2.439       .  S
O197        C206   1.291       .  A
Zr198       O504   2.439       .  S
Zr198       O216   2.342       .  S
Zr198       O491   2.342       .  S
Zr198       O516   2.341       .  S
Zr199       O505   2.439       .  S
Zr199       O203   2.341       .  S
Zr199       O485   2.341       .  S
Zr199       O526   2.342       .  S
Zr200       O204   2.341       .  S
Zr200       O214   2.342       .  S
Zr201       O203   2.341       .  S
Zr201       O216   2.342       .  S
Zr202       O500   2.439       .  S
Zr202       O203   2.341       .  S
Zr202       O216   2.342       .  S
Zr202       O516   2.341       .  S
Zr202       O526   2.342       .  S
O204       Zr510   2.341       .  S
O204       Zr514   2.341       .  S
C205        C577   1.435       .  S
C206        C581   1.435       .  S
C207        C224   1.435       .  S
C208        C225   1.435       .  S
C209        C232   1.435       .  S
C210        C217   1.435       .  S
C211        C252   1.434       .  S
C212        C264   1.435       .  S
H213        O214   0.965       .  S
O214       Zr511   2.342       .  S
O214       Zr514   2.342       .  S
H215        O216   0.965       .  S
C217        C218   1.205       .  T
C218        C219   1.412       .  S
C219        C220   1.205       .  T
C221        C222   1.205       .  T
C222        C223   1.411       .  S
C223        C224   1.205       .  T
C225        C226   1.205       .  T
C226        C227   1.412       .  S
C227        C228   1.205       .  T
C229        C230   1.205       .  T
C230        C231   1.411       .  S
C231        C232   1.205       .  T
C233        C234   1.205       .  T
C234        C235   1.411       .  S
C235        C236   1.205       .  T
C237        C238   1.205       .  T
C238        C239   1.411       .  S
C239        C240   1.205       .  T
C241        C242   1.205       .  T
C242        C243   1.411       .  S
C243        C244   1.205       .  T
C245        C246   1.205       .  T
C246        C247   1.411       .  S
C247        C248   1.205       .  T
C249        C250   1.205       .  T
C250        C251   1.411       .  S
C251        C252   1.205       .  T
C253        C254   1.205       .  T
C254        C255   1.411       .  S
C255        C256   1.205       .  T
C257        C258   1.205       .  T
C258        C259   1.411       .  S
C259        C260   1.205       .  T
C261        C262   1.205       .  T
C262        C263   1.411       .  S
C263        C264   1.205       .  T
C265        C517   1.435       .  S
C265        C578   1.205       .  T
C266        C577   1.205       .  T
C266        C267   1.411       .  S
C267        C580   1.205       .  T
C268        C579   1.205       .  T
C269        C518   1.435       .  S
C269        C270   1.205       .  T
C270        C271   1.411       .  S
C271        C272   1.205       .  T
C273        C487   1.435       .  S
C273        C586   1.205       .  T
C274        C585   1.205       .  T
C274        C275   1.411       .  S
C275        C588   1.205       .  T
C276        C587   1.205       .  T
C277        C486   1.435       .  S
C277        C278   1.205       .  T
C278        C279   1.411       .  S
C279        C280   1.205       .  T
C281        C906   1.205       .  T
C282        C905   1.205       .  T
C282        C283   1.411       .  S
C283        C908   1.205       .  T
C284        C776   1.434       .  S
C284        C907   1.205       .  T
C285        C286   1.205       .  T
C286        C287   1.411       .  S
C287        C288   1.205       .  T
C288        C775   1.434       .  S
C289        C745   1.434       .  S
C289        C290   1.205       .  T
C290        C291   1.411       .  S
C291        C292   1.205       .  T
C293        C294   1.205       .  T
C294        C295   1.411       .  S
C295        C296   1.205       .  T
C296        C744   1.435       .  S
C297        C298   1.205       .  T
C298       C1547   1.412       .  S
C299       C1548   1.205       .  T
C299       C1546   1.412       .  S
C300       C1547   1.205       .  T
C301        C302   1.205       .  T
C302       C1551   1.411       .  S
C303       C1552   1.205       .  T
C303       C1550   1.411       .  S
C304       C1551   1.205       .  T
C305        C306   1.205       .  T
C306        C307   1.412       .  S
C307        C308   1.205       .  T
C309        C310   1.205       .  T
C310       C1559   1.411       .  S
C311       C1560   1.205       .  T
C311       C1558   1.411       .  S
C312       C1559   1.205       .  T
O313       Zr349   2.439   1_545  S
O313        C324   1.291       .  A
O314       Zr348   2.439   1_545  S
O314        C325   1.291       .  A
O315       Zr321   2.439   1_455  S
O315        C326   1.291       .  A
O316      Zr1569   2.439       .  S
O316        C327   1.291       .  A
O317       Zr351   2.439   1_545  S
O317        C327   1.291       .  A
O318       Zr350   2.439   1_545  S
O318        C326   1.291       .  A
O319        C325   1.291       .  A
O320       Zr321   2.439       .  S
O320        C324   1.291       .  A
Zr321      O1564   2.439       .  S
Zr321      O1258   2.341       .  S
Zr321       O323   2.341   1_655  S
Zr321      O1579   2.342       .  S
O322      Zr1257   2.341   1_556  S
O322      Zr1596   2.341   1_545  S
O323       Zr349   2.341   1_445  S
O323       Zr350   2.341   1_545  S
C324        C621   1.435       .  S
C325        C609   1.435       .  S
C326        C592   1.435       .  S
C327        C584   1.435       .  S
H328        O329   0.965       .  S
O329       Zr348   2.342   1_445  S
H330        O331   0.966       .  S
O331      Zr1569   2.342       .  S
O331      Zr1597   2.342   1_545  S
O331       Zr351   2.342   1_545  S
O332       Zr972   2.439       .  S
O332        C355   1.291       .  A
O333       Zr973   2.439       .  S
O333        C356   1.291       .  A
O334        C357   1.291       .  A
O335        C358   1.291       .  A
O336       Zr351   2.439       .  S
O336        C359   1.291       .  A
O337       Zr350   2.439       .  S
O337        C360   1.291       .  A
O338       Zr352   2.439   1_455  S
O338        C361   1.291       .  A
O339      Zr1600   2.439       .  S
O339        C362   1.291       .  A
O340       Zr974   2.439       .  S
O340        C361   1.291       .  A
O341       Zr975   2.439       .  S
O341        C362   1.291       .  A
O342       Zr348   2.439   1_455  S
O342        C357   1.291       .  A
O343       Zr349   2.439   1_455  S
O343        C360   1.291       .  A
O344      Zr1597   2.439       .  S
O344        C359   1.291       .  A
O345      Zr1596   2.439       .  S
O345        C358   1.291       .  A
O346        C355   1.291       .  A
O347       Zr352   2.439       .  S
O347        C356   1.291       .  A
Zr348       O956   2.439       .  S
Zr348      O1593   2.439       .  S
Zr348      O1570   2.341   1_565  S
Zr348       O978   2.341   1_655  S
Zr348      O2238   2.342       .  S
Zr349       O957   2.439       .  S
Zr349      O1592   2.439       .  S
Zr349      O1579   2.342   1_565  S
Zr349      O2225   2.341       .  S
Zr349       O988   2.342   1_655  S
Zr350       O964   2.439       .  S
Zr350       O666   2.341       .  S
Zr350       O988   2.342       .  S
Zr351       O965   2.439       .  S
Zr351       O977   2.341       .  S
Zr351       O678   2.342       .  S
Zr352      O1587   2.439       .  S
Zr352      O1601   2.341       .  S
Zr352      O1302   2.342       .  S
Zr352       O364   2.342   1_655  S
O353      Zr2221   2.341       .  S
O353       Zr975   2.341       .  S
O353      Zr1600   2.341       .  S
O354       Zr972   2.341   1_455  S
O354       Zr662   2.341   1_556  S
C355        C613   1.435       .  S
C356        C620   1.435       .  S
C357        C597   1.435       .  S
C358        C593   1.434       .  S
C359        C605   1.434       .  S
C360        C604   1.434       .  S
C361        C588   1.435       .  S
C362        C580   1.435       .  S
H363        O364   0.965       .  S
O364       Zr973   2.342   1_455  S
O364       Zr974   2.342       .  S
H365        O366   0.966       .  S
O366      Zr2220   2.342       .  S
O366       Zr663   2.342   1_556  S
O366      Zr1288   2.342   1_556  S
O367       Zr403   2.439       .  S
O367        C378   1.291       .  A
O368       Zr402   2.439       .  S
O368        C379   1.291       .  A
O369       Zr375   2.439   1_455  S
O369        C380   1.291       .  A
O370      Zr1623   2.439       .  S
O370        C381   1.291       .  A
O371       Zr405   2.439       .  S
O371        C381   1.291       .  A
O372       Zr404   2.439       .  S
O372        C380   1.291       .  A
O373       Zr375   2.439       .  S
O373        C379   1.291       .  A
O374       Zr375   2.439       .  S
O374        C378   1.291       .  A
Zr375      O1618   2.439       .  S
Zr375      O1624   2.341       .  S
Zr375       O377   2.341   1_655  S
Zr375      O1633   2.342       .  S
Zr375       O383   2.342   1_655  S
O376      Zr1623   2.341       .  S
O376      Zr1650   2.341       .  S
O376       Zr405   2.341       .  S
O377       Zr403   2.341   1_455  S
O377       Zr404   2.341       .  S
C378        C624   1.435       .  S
C379        C612   1.435       .  S
C380        C556   1.435       .  S
C381        C548   1.435       .  S
H382        O383   0.965       .  S
O383       Zr402   2.342   1_455  S
O383       Zr404   2.342       .  S
H384        O385   0.966       .  S
O385      Zr1623   2.342       .  S
O385      Zr1651   2.342       .  S
O385       Zr405   2.342       .  S
O386       Zr402   2.439       .  S
O386        C409   1.291       .  A
O387       Zr403   2.439       .  S
O387        C410   1.291       .  A
O388       Zr404   2.439       .  S
O388        C411   1.291       .  A
O389       Zr405   2.439       .  S
O389        C412   1.291       .  A
O390       Zr405   2.439       .  S
O390        C413   1.291       .  A
O391       Zr404   2.439       .  S
O391        C414   1.291       .  A
O392       Zr406   2.439   1_455  S
O392        C415   1.291       .  A
O393      Zr1654   2.439       .  S
O393        C416   1.291       .  A
O394       Zr404   2.439       .  S
O394        C415   1.291       .  A
O395       Zr405   2.439       .  S
O395        C416   1.291       .  A
O396       Zr402   2.439   1_455  S
O396        C411   1.291       .  A
O397       Zr403   2.439   1_455  S
O397        C414   1.291       .  A
O398      Zr1651   2.439       .  S
O398        C413   1.291       .  A
O399      Zr1650   2.439       .  S
O399        C412   1.291       .  A
O400       Zr406   2.439       .  S
O400        C409   1.291       .  A
O401       Zr406   2.439       .  S
O401        C410   1.291       .  A
Zr402      O1647   2.439       .  S
Zr402      O1624   2.341       .  S
Zr402       O408   2.341   1_655  S
Zr402      O1668   2.342       .  S
Zr403      O1646   2.439       .  S
Zr403      O1633   2.342       .  S
Zr403      O1655   2.341       .  S
Zr403       O418   2.342   1_655  S
Zr404       O408   2.341       .  S
Zr404       O418   2.342       .  S
Zr405       O407   2.341       .  S
Zr405       O420   2.342       .  S
Zr406      O1641   2.439       .  S
Zr406      O1655   2.341       .  S
Zr406       O408   2.341   1_655  S
Zr406      O1668   2.342       .  S
Zr406       O418   2.342   1_655  S
O407      Zr1651   2.341       .  S
O407      Zr1654   2.341       .  S
C409        C616   1.435       .  S
C410        C617   1.435       .  S
C411        C569   1.434       .  S
C412        C573   1.434       .  S
C413        C561   1.434       .  S
C414        C568   1.435       .  S
C415        C557   1.435       .  S
C416        C549   1.435       .  S
H417        O418   0.965       .  S
H419        O420   0.966       .  S
O420      Zr1650   2.342       .  S
O420      Zr1654   2.342       .  S
O421       Zr457   2.439       .  S
O421        C432   1.291       .  A
O422       Zr456   2.439       .  S
O422        C433   1.291       .  A
O423       Zr429   2.439       .  S
O423        C434   1.291       .  A
O424      Zr1053   2.439   1_545  S
O424        C435   1.291       .  A
O425       Zr459   2.439       .  S
O425        C435   1.291       .  A
O426       Zr458   2.439       .  S
O426        C434   1.291       .  A
O427       Zr429   2.439       .  S
O427        C433   1.291       .  A
O428       Zr429   2.439       .  S
O428        C432   1.291       .  A
Zr429      O1048   2.439       .  S
Zr429      O1054   2.341       .  S
Zr429       O431   2.341       .  S
Zr429      O1063   2.342       .  S
Zr429       O437   2.342       .  S
O430      Zr1053   2.341   1_545  S
O430      Zr1080   2.341   1_545  S
O430       Zr459   2.341       .  S
O431       Zr457   2.341       .  S
O431       Zr458   2.341       .  S
C432       C1232   1.435       .  S
C433       C1225   1.434       .  S
C434        C533   1.435       .  S
C435        C532   1.435       .  S
H436        O437   0.966       .  S
O437       Zr456   2.342       .  S
O437       Zr458   2.342       .  S
H438        O439   0.965       .  S
O439      Zr1053   2.342   1_545  S
O439      Zr1081   2.342   1_545  S
O439       Zr459   2.342       .  S
O440       Zr456   2.439       .  S
O440        C463   1.291       .  A
O441       Zr457   2.439       .  S
O441        C464   1.291       .  A
O442       Zr458   2.439       .  S
O442        C465   1.291       .  A
O443       Zr459   2.439       .  S
O443        C466   1.291       .  A
O444       Zr459   2.439       .  S
O444        C467   1.291       .  A
O445       Zr458   2.439       .  S
O445        C468   1.291       .  A
O446       Zr460   2.439       .  S
O446        C469   1.291       .  A
O447      Zr1084   2.439   1_545  S
O447        C470   1.291       .  A
O448       Zr458   2.439       .  S
O448        C469   1.291       .  A
O449       Zr459   2.439       .  S
O449        C470   1.291       .  A
O450       Zr456   2.439       .  S
O450        C465   1.291       .  A
O451       Zr457   2.439       .  S
O451        C468   1.291       .  A
O452      Zr1081   2.439   1_545  S
O452        C467   1.291       .  A
O453      Zr1080   2.439   1_545  S
O453        C466   1.291       .  A
O454       Zr460   2.439       .  S
O454        C463   1.291       .  A
O455       Zr460   2.439       .  S
O455        C464   1.291       .  A
Zr456      O1077   2.439       .  S
Zr456      O1054   2.341       .  S
Zr456       O462   2.341       .  S
Zr456      O1098   2.342       .  S
Zr457      O1076   2.439       .  S
Zr457      O1063   2.342       .  S
Zr457      O1085   2.341       .  S
Zr457       O472   2.342       .  S
Zr458       O462   2.341       .  S
Zr458       O472   2.342       .  S
Zr459       O461   2.341       .  S
Zr459       O474   2.342       .  S
Zr460      O1071   2.439       .  S
Zr460      O1085   2.341       .  S
Zr460       O462   2.341       .  S
Zr460      O1098   2.342       .  S
Zr460       O472   2.342       .  S
O461      Zr1081   2.341   1_545  S
O461      Zr1084   2.341   1_545  S
C463       C1224   1.434       .  S
C464       C1220   1.434       .  S
C465        C560   1.435       .  S
C466        C553   1.435       .  S
C467        C545   1.435       .  S
C468        C552   1.435       .  S
C469        C540   1.435       .  S
C470        C541   1.435       .  S
H471        O472   0.965       .  S
H473        O474   0.966       .  S
O474      Zr1080   2.342   1_545  S
O474      Zr1084   2.342   1_545  S
O475       Zr511   2.439       .  S
O475        C486   1.291       .  A
O476       Zr510   2.439   1_556  S
O476        C487   1.291       .  A
O477        C488   1.291       .  A
O478       Zr483   2.439   1_556  S
O478        C489   1.291       .  A
O479       Zr513   2.439       .  S
O479        C489   1.291       .  A
O480       Zr512   2.439       .  S
O480        C488   1.291       .  A
O481       Zr483   2.439   1_556  S
O481        C487   1.291       .  A
O482       Zr483   2.439       .  S
O482        C486   1.291       .  A
Zr483       O484   2.341   1_554  S
Zr483       O493   2.342   1_554  S
O484       Zr510   2.341   1_556  S
O484       Zr513   2.341       .  S
O485       Zr512   2.341       .  S
C488        C565   1.434       .  S
C489        C572   1.434       .  S
H490        O491   0.966       .  S
O491       Zr512   2.342       .  S
H492        O493   0.966       .  S
O493       Zr511   2.342   1_556  S
O493       Zr513   2.342       .  S
O494       Zr510   2.439       .  S
O494        C517   1.291       .  A
O495       Zr511   2.439   1_556  S
O495        C518   1.291       .  A
O496       Zr512   2.439       .  S
O496        C519   1.291       .  A
O497       Zr513   2.439       .  S
O497        C520   1.291       .  A
O498       Zr513   2.439       .  S
O498        C521   1.291       .  A
O499       Zr512   2.439       .  S
O499        C522   1.291       .  A
O500        C523   1.291       .  A
O501       Zr514   2.439   1_556  S
O501        C524   1.291       .  A
O502       Zr512   2.439       .  S
O502        C523   1.291       .  A
O503       Zr513   2.439       .  S
O503        C524   1.291       .  A
O504        C519   1.291       .  A
O505        C522   1.291       .  A
O506       Zr511   2.439   1_556  S
O506        C521   1.291       .  A
O507       Zr510   2.439   1_556  S
O507        C520   1.291       .  A
O508       Zr514   2.439       .  S
O508        C517   1.291       .  A
O509       Zr514   2.439   1_556  S
O509        C518   1.291       .  A
Zr510       O528   2.342   1_554  S
Zr511       O515   2.341   1_554  S
Zr512       O516   2.341       .  S
Zr512       O526   2.342       .  S
Zr513       O515   2.341       .  S
Zr513       O528   2.342       .  S
Zr514       O515   2.341   1_554  S
Zr514       O528   2.342   1_554  S
C519        C536   1.435       .  S
C520        C537   1.435       .  S
C521        C544   1.435       .  S
C522        C529   1.435       .  S
C523        C564   1.434       .  S
C524        C576   1.435       .  S
H525        O526   0.965       .  S
H527        O528   0.965       .  S
C529        C530   1.205       .  T
C530        C531   1.412       .  S
C531        C532   1.205       .  T
C533        C534   1.205       .  T
C534        C535   1.411       .  S
C535        C536   1.205       .  T
C537        C538   1.205       .  T
C538        C539   1.412       .  S
C539        C540   1.205       .  T
C541        C542   1.205       .  T
C542        C543   1.411       .  S
C543        C544   1.205       .  T
C545        C546   1.205       .  T
C546        C547   1.411       .  S
C547        C548   1.205       .  T
C549        C550   1.205       .  T
C550        C551   1.411       .  S
C551        C552   1.205       .  T
C553        C554   1.205       .  T
C554        C555   1.411       .  S
C555        C556   1.205       .  T
C557        C558   1.205       .  T
C558        C559   1.411       .  S
C559        C560   1.205       .  T
C561        C562   1.205       .  T
C562        C563   1.411       .  S
C563        C564   1.205       .  T
C565        C566   1.205       .  T
C566        C567   1.411       .  S
C567        C568   1.205       .  T
C569        C570   1.205       .  T
C570        C571   1.411       .  S
C571        C572   1.205       .  T
C573        C574   1.205       .  T
C574        C575   1.411       .  S
C575        C576   1.205       .  T
C578        C579   1.411       .  S
C581        C582   1.205       .  T
C582        C583   1.411       .  S
C583        C584   1.205       .  T
C586        C587   1.411       .  S
C589        C590   1.205       .  T
C590        C591   1.411       .  S
C591        C592   1.205       .  T
C593       C1218   1.205       .  T
C594       C1217   1.205       .  T
C594        C595   1.411       .  S
C595       C1220   1.205       .  T
C596       C1088   1.434       .  S
C596       C1219   1.205       .  T
C597        C598   1.205       .  T
C598        C599   1.411       .  S
C599        C600   1.205       .  T
C600       C1087   1.434       .  S
C601       C1057   1.434       .  S
C601        C602   1.205       .  T
C602        C603   1.411       .  S
C603        C604   1.205       .  T
C605        C606   1.205       .  T
C606        C607   1.411       .  S
C607        C608   1.205       .  T
C608       C1056   1.435       .  S
C609        C610   1.205       .  T
C610       C1859   1.412       .  S
C611       C1860   1.205       .  T
C611       C1858   1.412       .  S
C612       C1859   1.205       .  T
C613        C614   1.205       .  T
C614       C1863   1.411       .  S
C615       C1864   1.205       .  T
C615       C1862   1.411       .  S
C616       C1863   1.205       .  T
C617        C618   1.205       .  T
C618        C619   1.412       .  S
C619        C620   1.205       .  T
C621        C622   1.205       .  T
C622       C1871   1.411       .  S
C623       C1872   1.205       .  T
C623       C1870   1.411       .  S
C624       C1871   1.205       .  T
O625       Zr661   2.439       .  S
O625        C636   1.291       .  A
O626       Zr660   2.439       .  S
O626        C637   1.291       .  A
O627       Zr633   2.439   1_455  S
O627        C638   1.291       .  A
O628      Zr1881   2.439   1_556  S
O628        C639   1.291       .  A
O629       Zr663   2.439   1_556  S
O629        C639   1.291       .  A
O630       Zr662   2.439       .  S
O630        C638   1.291       .  A
O631       Zr945   2.439       .  S
O631        C637   1.291       .  A
O632       Zr633   2.439       .  S
O632        C636   1.291       .  A
Zr633      O1876   2.439   1_554  S
Zr633       O943   2.439   1_554  S
Zr633      O2194   2.341   1_554  S
Zr633       O635   2.341   1_655  S
Zr633      O1891   2.342       .  S
Zr633       O953   2.342   1_654  S
O634      Zr2193   2.341       .  S
O634      Zr1908   2.341       .  S
O634       Zr975   2.341       .  S
O635       Zr661   2.341   1_455  S
O635       Zr662   2.341       .  S
C636        C933   1.435       .  S
C637        C921   1.435       .  S
C638        C904   1.435       .  S
C639        C896   1.435       .  S
H640        O641   0.965       .  S
O641       Zr945   2.342   1_455  S
O641       Zr660   2.342   1_455  S
O641       Zr974   2.342       .  S
H642        O643   0.966       .  S
O643      Zr1881   2.342       .  S
O643      Zr1909   2.342       .  S
O643       Zr663   2.342       .  S
O644        C667   1.291       .  A
O645        C668   1.291       .  A
O646       Zr974   2.439       .  S
O646        C669   1.291       .  A
O647       Zr975   2.439       .  S
O647        C670   1.291       .  A
O648       Zr663   2.439       .  S
O648        C671   1.291       .  A
O649       Zr662   2.439       .  S
O649        C672   1.291       .  A
O650       Zr664   2.439   1_456  S
O650        C673   1.291       .  A
O651      Zr1912   2.439       .  S
O651        C674   1.291       .  A
O652        C673   1.291       .  A
O653        C674   1.291       .  A
O654       Zr660   2.439   1_455  S
O654        C669   1.291       .  A
O655       Zr661   2.439   1_455  S
O655        C672   1.291       .  A
O656      Zr1909   2.439       .  S
O656        C671   1.291       .  A
O657      Zr1908   2.439       .  S
O657        C670   1.291       .  A
O658       Zr976   2.439       .  S
O658        C667   1.291       .  A
O659       Zr664   2.439       .  S
O659        C668   1.291       .  A
Zr660      O1905   2.439       .  S
Zr660      O1882   2.341       .  S
Zr660      O1302   2.342       .  S
Zr661      O1904   2.439       .  S
Zr661      O1891   2.342       .  S
Zr661      O1289   2.341       .  S
Zr662       O958   2.439   1_554  S
Zr662       O953   2.342   1_554  S
Zr663       O959   2.439   1_554  S
Zr663       O946   2.341   1_554  S
Zr664      O1899   2.439       .  S
Zr664       O970   2.439   1_554  S
Zr664      O1913   2.341       .  S
Zr664       O978   2.341   1_654  S
Zr664      O2238   2.342   1_554  S
Zr664       O676   2.342   1_655  S
O665      Zr1285   2.341       .  S
O665      Zr1912   2.341       .  S
O666       Zr976   2.341   1_455  S
C667        C925   1.435       .  S
C668        C932   1.435       .  S
C669        C909   1.435       .  S
C670        C905   1.434       .  S
C671        C917   1.434       .  S
C672        C916   1.434       .  S
C673        C900   1.435       .  S
C674        C892   1.435       .  S
H675        O676   0.965       .  S
H677        O678   0.966       .  S
O678      Zr1284   2.342       .  S
O678      Zr2224   2.342       .  S
O679       Zr715   2.439       .  S
O679        C690   1.291       .  A
O680       Zr714   2.439       .  S
O680        C691   1.291       .  A
O681       Zr687   2.439   1_455  S
O681        C692   1.291       .  A
O682      Zr1935   2.439       .  S
O682        C693   1.291       .  A
O683       Zr717   2.439       .  S
O683        C693   1.291       .  A
O684       Zr716   2.439       .  S
O684        C692   1.291       .  A
O685       Zr687   2.439       .  S
O685        C691   1.291       .  A
O686       Zr687   2.439       .  S
O686        C690   1.291       .  A
Zr687      O1930   2.439       .  S
Zr687      O1936   2.341       .  S
Zr687       O689   2.341   1_655  S
Zr687      O1945   2.342       .  S
Zr687       O695   2.342   1_655  S
O688      Zr1935   2.341       .  S
O688      Zr1962   2.341       .  S
O688       Zr717   2.341       .  S
O689       Zr715   2.341   1_455  S
O689       Zr716   2.341       .  S
C690        C936   1.435       .  S
C691        C924   1.435       .  S
C692        C868   1.435       .  S
C693        C860   1.435       .  S
H694        O695   0.965       .  S
O695       Zr714   2.342   1_455  S
O695       Zr716   2.342       .  S
H696        O697   0.966       .  S
O697      Zr1935   2.342       .  S
O697      Zr1963   2.342       .  S
O697       Zr717   2.342       .  S
O698       Zr714   2.439       .  S
O698        C721   1.291       .  A
O699       Zr715   2.439       .  S
O699        C722   1.291       .  A
O700       Zr716   2.439       .  S
O700        C723   1.291       .  A
O701       Zr717   2.439       .  S
O701        C724   1.291       .  A
O702       Zr717   2.439       .  S
O702        C725   1.291       .  A
O703       Zr716   2.439       .  S
O703        C726   1.291       .  A
O704       Zr718   2.439   1_455  S
O704        C727   1.291       .  A
O705      Zr1966   2.439       .  S
O705        C728   1.291       .  A
O706       Zr716   2.439       .  S
O706        C727   1.291       .  A
O707       Zr717   2.439       .  S
O707        C728   1.291       .  A
O708       Zr714   2.439   1_455  S
O708        C723   1.291       .  A
O709       Zr715   2.439   1_455  S
O709        C726   1.291       .  A
O710      Zr1963   2.439       .  S
O710        C725   1.291       .  A
O711      Zr1962   2.439       .  S
O711        C724   1.291       .  A
O712       Zr718   2.439       .  S
O712        C721   1.291       .  A
O713       Zr718   2.439       .  S
O713        C722   1.291       .  A
Zr714      O1959   2.439       .  S
Zr714      O1936   2.341       .  S
Zr714       O720   2.341   1_655  S
Zr714      O1980   2.342       .  S
Zr715      O1958   2.439       .  S
Zr715      O1945   2.342       .  S
Zr715      O1967   2.341       .  S
Zr715       O730   2.342   1_655  S
Zr716       O720   2.341       .  S
Zr716       O730   2.342       .  S
Zr717       O719   2.341       .  S
Zr717       O732   2.342       .  S
Zr718      O1953   2.439       .  S
Zr718      O1967   2.341       .  S
Zr718       O720   2.341   1_655  S
Zr718      O1980   2.342       .  S
Zr718       O730   2.342   1_655  S
O719      Zr1963   2.341       .  S
O719      Zr1966   2.341       .  S
C721        C928   1.435       .  S
C722        C929   1.435       .  S
C723        C881   1.434       .  S
C724        C885   1.434       .  S
C725        C873   1.434       .  S
C726        C880   1.435       .  S
C727        C869   1.435       .  S
C728        C861   1.435       .  S
H729        O730   0.965       .  S
H731        O732   0.966       .  S
O732      Zr1962   2.342       .  S
O732      Zr1966   2.342       .  S
O733       Zr769   2.439       .  S
O733        C744   1.291       .  A
O734       Zr768   2.439       .  S
O734        C745   1.291       .  A
O735       Zr741   2.439       .  S
O735        C746   1.291       .  A
O736        C747   1.291       .  A
O737       Zr771   2.439       .  S
O737        C747   1.291       .  A
O738       Zr770   2.439       .  S
O738        C746   1.291       .  A
O739       Zr741   2.439       .  S
O739        C745   1.291       .  A
O740       Zr741   2.439       .  S
O740        C744   1.291       .  A
Zr741       O743   2.341       .  S
Zr741       O749   2.342       .  S
O742       Zr771   2.341       .  S
O743       Zr769   2.341       .  S
O743       Zr770   2.341       .  S
C746        C845   1.435       .  S
C747        C844   1.435       .  S
H748        O749   0.966       .  S
O749       Zr768   2.342       .  S
O749       Zr770   2.342       .  S
H750        O751   0.965       .  S
O751       Zr771   2.342       .  S
O752       Zr768   2.439       .  S
O752        C775   1.291       .  A
O753       Zr769   2.439       .  S
O753        C776   1.291       .  A
O754       Zr770   2.439       .  S
O754        C777   1.291       .  A
O755       Zr771   2.439       .  S
O755        C778   1.291       .  A
O756       Zr771   2.439       .  S
O756        C779   1.291       .  A
O757       Zr770   2.439       .  S
O757        C780   1.291       .  A
O758       Zr772   2.439       .  S
O758        C781   1.291       .  A
O759        C782   1.291       .  A
O760       Zr770   2.439       .  S
O760        C781   1.291       .  A
O761       Zr771   2.439       .  S
O761        C782   1.291       .  A
O762       Zr768   2.439       .  S
O762        C777   1.291       .  A
O763       Zr769   2.439       .  S
O763        C780   1.291       .  A
O764        C779   1.291       .  A
O765        C778   1.291       .  A
O766       Zr772   2.439       .  S
O766        C775   1.291       .  A
O767       Zr772   2.439       .  S
O767        C776   1.291       .  A
Zr768       O774   2.341       .  S
Zr769       O784   2.342       .  S
Zr770       O774   2.341       .  S
Zr770       O784   2.342       .  S
Zr771       O773   2.341       .  S
Zr771       O786   2.342       .  S
Zr772       O774   2.341       .  S
Zr772       O784   2.342       .  S
C777        C872   1.435       .  S
C778        C865   1.435       .  S
C779        C857   1.435       .  S
C780        C864   1.435       .  S
C781        C852   1.435       .  S
C782        C853   1.435       .  S
H783        O784   0.965       .  S
H785        O786   0.966       .  S
O787       Zr823   2.439       .  S
O787        C798   1.291       .  A
O788       Zr822   2.439       .  S
O788        C799   1.291       .  A
O789      Zr1107   2.439       .  S
O789        C800   1.291       .  A
O790       Zr795   2.439       .  S
O790        C801   1.291       .  A
O791       Zr825   2.439       .  S
O791        C801   1.291       .  A
O792       Zr824   2.439       .  S
O792        C800   1.291       .  A
O793       Zr795   2.439       .  S
O793        C799   1.291       .  A
O794       Zr795   2.439       .  S
O794        C798   1.291       .  A
Zr795      O1101   2.439       .  S
Zr795       O796   2.341       .  S
Zr795      O1109   2.341       .  S
Zr795       O805   2.342       .  S
Zr795      O1115   2.342       .  S
O796       Zr822   2.341       .  S
O796       Zr825   2.341       .  S
O797      Zr1107   2.341       .  S
O797      Zr1135   2.341       .  S
O797       Zr824   2.341       .  S
C798       C1213   1.435       .  S
C799       C1209   1.435       .  S
C800        C877   1.434       .  S
C801        C884   1.434       .  S
H802        O803   0.966       .  S
O803      Zr1107   2.342       .  S
O803      Zr1134   2.342       .  S
O803       Zr824   2.342       .  S
H804        O805   0.966       .  S
O805       Zr823   2.342       .  S
O805       Zr825   2.342       .  S
O806       Zr822   2.439       .  S
O806        C829   1.291       .  A
O807       Zr823   2.439       .  S
O807        C830   1.291       .  A
O808       Zr824   2.439       .  S
O808        C831   1.291       .  A
O809       Zr825   2.439       .  S
O809        C832   1.291       .  A
O810       Zr825   2.439       .  S
O810        C833   1.291       .  A
O811       Zr824   2.439       .  S
O811        C834   1.291       .  A
O812      Zr1138   2.439       .  S
O812        C835   1.291       .  A
O813       Zr826   2.439       .  S
O813        C836   1.291       .  A
O814       Zr824   2.439       .  S
O814        C835   1.291       .  A
O815       Zr825   2.439       .  S
O815        C836   1.291       .  A
O816      Zr1134   2.439       .  S
O816        C831   1.291       .  A
O817      Zr1135   2.439       .  S
O817        C834   1.291       .  A
O818       Zr823   2.439       .  S
O818        C833   1.291       .  A
O819       Zr822   2.439       .  S
O819        C832   1.291       .  A
O820       Zr826   2.439       .  S
O820        C829   1.291       .  A
O821       Zr826   2.439       .  S
O821        C830   1.291       .  A
Zr822      O1128   2.439       .  S
Zr822      O1115   2.342       .  S
Zr822      O1140   2.341       .  S
Zr822       O840   2.342       .  S
Zr823      O1129   2.439       .  S
Zr823      O1109   2.341       .  S
Zr823       O827   2.341       .  S
Zr823      O1150   2.342       .  S
Zr824       O828   2.341       .  S
Zr824       O838   2.342       .  S
Zr825       O827   2.341       .  S
Zr825       O840   2.342       .  S
Zr826      O1124   2.439       .  S
Zr826       O827   2.341       .  S
Zr826      O1140   2.341       .  S
Zr826       O840   2.342       .  S
Zr826      O1150   2.342       .  S
O828      Zr1134   2.341       .  S
O828      Zr1138   2.341       .  S
C829       C1201   1.435       .  S
C830       C1205   1.435       .  S
C831        C848   1.435       .  S
C832        C849   1.435       .  S
C833        C856   1.435       .  S
C834        C841   1.435       .  S
C835        C876   1.434       .  S
C836        C888   1.435       .  S
H837        O838   0.965       .  S
O838      Zr1135   2.342       .  S
O838      Zr1138   2.342       .  S
H839        O840   0.965       .  S
C841        C842   1.205       .  T
C842        C843   1.412       .  S
C843        C844   1.205       .  T
C845        C846   1.205       .  T
C846        C847   1.411       .  S
C847        C848   1.205       .  T
C849        C850   1.205       .  T
C850        C851   1.412       .  S
C851        C852   1.205       .  T
C853        C854   1.205       .  T
C854        C855   1.411       .  S
C855        C856   1.205       .  T
C857        C858   1.205       .  T
C858        C859   1.411       .  S
C859        C860   1.205       .  T
C861        C862   1.205       .  T
C862        C863   1.411       .  S
C863        C864   1.205       .  T
C865        C866   1.205       .  T
C866        C867   1.411       .  S
C867        C868   1.205       .  T
C869        C870   1.205       .  T
C870        C871   1.411       .  S
C871        C872   1.205       .  T
C873        C874   1.205       .  T
C874        C875   1.411       .  S
C875        C876   1.205       .  T
C877        C878   1.205       .  T
C878        C879   1.411       .  S
C879        C880   1.205       .  T
C881        C882   1.205       .  T
C882        C883   1.411       .  S
C883        C884   1.205       .  T
C885        C886   1.205       .  T
C886        C887   1.411       .  S
C887        C888   1.205       .  T
C889       C1141   1.435       .  S
C889       C1202   1.205       .  T
C890       C1201   1.205       .  T
C890        C891   1.411       .  S
C891       C1204   1.205       .  T
C892       C1203   1.205       .  T
C893       C1142   1.435       .  S
C893        C894   1.205       .  T
C894        C895   1.411       .  S
C895        C896   1.205       .  T
C897       C1111   1.435       .  S
C897       C1210   1.205       .  T
C898       C1209   1.205       .  T
C898        C899   1.411       .  S
C899       C1212   1.205       .  T
C900       C1211   1.205       .  T
C901       C1110   1.435       .  S
C901        C902   1.205       .  T
C902        C903   1.411       .  S
C903        C904   1.205       .  T
C906        C907   1.411       .  S
C909        C910   1.205       .  T
C910        C911   1.411       .  S
C911        C912   1.205       .  T
C913        C914   1.205       .  T
C914        C915   1.411       .  S
C915        C916   1.205       .  T
C917        C918   1.205       .  T
C918        C919   1.411       .  S
C919        C920   1.205       .  T
C921        C922   1.205       .  T
C922       C2171   1.412       .  S
C923       C2172   1.205       .  T
C923       C2170   1.412       .  S
C924       C2171   1.205       .  T
C925        C926   1.205       .  T
C926       C2175   1.411       .  S
C927       C2176   1.205       .  T
C927       C2174   1.411       .  S
C928       C2175   1.205       .  T
C929        C930   1.205       .  T
C930        C931   1.412       .  S
C931        C932   1.205       .  T
C933        C934   1.205       .  T
C934       C2183   1.411       .  S
C935       C2184   1.205       .  T
C935       C2182   1.411       .  S
C936       C2183   1.205       .  T
O937       Zr973   2.439       .  S
O937        C948   1.291       .  A
O938       Zr972   2.439       .  S
O938        C949   1.291       .  A
O939       Zr945   2.439   1_455  S
O939        C950   1.291       .  A
O940      Zr2193   2.439       .  S
O940        C951   1.291       .  A
O941       Zr975   2.439       .  S
O941        C951   1.291       .  A
O942       Zr974   2.439       .  S
O942        C950   1.291       .  A
O943        C949   1.291       .  A
O944       Zr945   2.439       .  S
O944        C948   1.291       .  A
Zr945      O2188   2.439       .  S
Zr945      O1882   2.341       .  S
Zr945       O947   2.341   1_655  S
Zr945      O2203   2.342       .  S
O946      Zr1881   2.341   1_556  S
O946      Zr2220   2.341       .  S
O947       Zr973   2.341   1_455  S
O947       Zr974   2.341       .  S
C948       C1245   1.435       .  S
C949       C1233   1.435       .  S
C950       C1216   1.435       .  S
C951       C1208   1.435       .  S
H952        O953   0.965       .  S
O953       Zr972   2.342   1_455  S
H954        O955   0.966       .  S
O955      Zr2193   2.342       .  S
O955      Zr2221   2.342       .  S
O955       Zr975   2.342       .  S
O956        C979   1.291       .  A
O957        C980   1.291       .  A
O958        C981   1.291       .  A
O959        C982   1.291       .  A
O960       Zr975   2.439       .  S
O960        C983   1.291       .  A
O961       Zr974   2.439       .  S
O961        C984   1.291       .  A
O962       Zr976   2.439   1_455  S
O962        C985   1.291       .  A
O963      Zr2224   2.439       .  S
O963        C986   1.291       .  A
O964        C985   1.291       .  A
O965        C986   1.291       .  A
O966       Zr972   2.439   1_455  S
O966        C981   1.291       .  A
O967       Zr973   2.439   1_455  S
O967        C984   1.291       .  A
O968      Zr2221   2.439       .  S
O968        C983   1.291       .  A
O969      Zr2220   2.439       .  S
O969        C982   1.291       .  A
O970        C979   1.291       .  A
O971       Zr976   2.439       .  S
O971        C980   1.291       .  A
Zr972      O2217   2.439       .  S
Zr972      O2194   2.341       .  S
Zr972      O1614   2.342       .  S
Zr973      O2216   2.439       .  S
Zr973      O2203   2.342       .  S
Zr973      O1601   2.341       .  S
Zr976      O2211   2.439       .  S
Zr976      O2225   2.341       .  S
Zr976      O1926   2.342       .  S
Zr976       O988   2.342   1_655  S
O977      Zr1597   2.341       .  S
O977      Zr2224   2.341       .  S
C979       C1237   1.435       .  S
C980       C1244   1.435       .  S
C981       C1221   1.435       .  S
C982       C1217   1.434       .  S
C983       C1229   1.434       .  S
C984       C1228   1.434       .  S
C985       C1212   1.435       .  S
C986       C1204   1.435       .  S
H987        O988   0.965       .  S
H989        O990   0.966       .  S
O990      Zr1596   2.342       .  S
O990      Zr1912   2.342   1_556  S
O991      Zr1027   2.439       .  S
O991       C1002   1.291       .  A
O992      Zr1026   2.439       .  S
O992       C1003   1.291       .  A
O993       Zr999   2.439   1_455  S
O993       C1004   1.291       .  A
O994      Zr2247   2.439       .  S
O994       C1005   1.291       .  A
O995      Zr1029   2.439       .  S
O995       C1005   1.291       .  A
O996      Zr1028   2.439       .  S
O996       C1004   1.291       .  A
O997       Zr999   2.439       .  S
O997       C1003   1.291       .  A
O998       Zr999   2.439       .  S
O998       C1002   1.291       .  A
Zr999      O2242   2.439       .  S
Zr999      O2248   2.341       .  S
Zr999      O1001   2.341   1_655  S
Zr999      O2257   2.342       .  S
Zr999      O1007   2.342   1_655  S
O1000     Zr2247   2.341       .  S
O1000     Zr2274   2.341       .  S
O1000     Zr1029   2.341       .  S
O1001     Zr1027   2.341   1_455  S
O1001     Zr1028   2.341       .  S
C1002      C1248   1.435       .  S
C1003      C1236   1.435       .  S
C1004      C1180   1.435       .  S
C1005      C1172   1.435       .  S
H1006      O1007   0.965       .  S
O1007     Zr1026   2.342   1_455  S
O1007     Zr1028   2.342       .  S
H1008      O1009   0.966       .  S
O1009     Zr2247   2.342       .  S
O1009     Zr2275   2.342       .  S
O1009     Zr1029   2.342       .  S
O1010     Zr1026   2.439       .  S
O1010      C1033   1.291       .  A
O1011     Zr1027   2.439       .  S
O1011      C1034   1.291       .  A
O1012     Zr1028   2.439       .  S
O1012      C1035   1.291       .  A
O1013     Zr1029   2.439       .  S
O1013      C1036   1.291       .  A
O1014     Zr1029   2.439       .  S
O1014      C1037   1.291       .  A
O1015     Zr1028   2.439       .  S
O1015      C1038   1.291       .  A
O1016     Zr1030   2.439   1_455  S
O1016      C1039   1.291       .  A
O1017     Zr2278   2.439       .  S
O1017      C1040   1.291       .  A
O1018     Zr1028   2.439       .  S
O1018      C1039   1.291       .  A
O1019     Zr1029   2.439       .  S
O1019      C1040   1.291       .  A
O1020     Zr1026   2.439   1_455  S
O1020      C1035   1.291       .  A
O1021     Zr1027   2.439   1_455  S
O1021      C1038   1.291       .  A
O1022     Zr2275   2.439       .  S
O1022      C1037   1.291       .  A
O1023     Zr2274   2.439       .  S
O1023      C1036   1.291       .  A
O1024     Zr1030   2.439       .  S
O1024      C1033   1.291       .  A
O1025     Zr1030   2.439       .  S
O1025      C1034   1.291       .  A
Zr1026     O2271   2.439       .  S
Zr1026     O2248   2.341       .  S
Zr1026     O1032   2.341   1_655  S
Zr1026     O2292   2.342       .  S
Zr1027     O2270   2.439       .  S
Zr1027     O2257   2.342       .  S
Zr1027     O2279   2.341       .  S
Zr1027     O1042   2.342   1_655  S
Zr1028     O1032   2.341       .  S
Zr1028     O1042   2.342       .  S
Zr1029     O1031   2.341       .  S
Zr1029     O1044   2.342       .  S
Zr1030     O2265   2.439       .  S
Zr1030     O2279   2.341       .  S
Zr1030     O1032   2.341   1_655  S
Zr1030     O2292   2.342       .  S
Zr1030     O1042   2.342   1_655  S
O1031     Zr2275   2.341       .  S
O1031     Zr2278   2.341       .  S
C1033      C1240   1.435       .  S
C1034      C1241   1.435       .  S
C1035      C1193   1.434       .  S
C1036      C1197   1.434       .  S
C1037      C1185   1.434       .  S
C1038      C1192   1.435       .  S
C1039      C1181   1.435       .  S
C1040      C1173   1.435       .  S
H1041      O1042   0.965       .  S
H1043      O1044   0.966       .  S
O1044     Zr2274   2.342       .  S
O1044     Zr2278   2.342       .  S
O1045     Zr1081   2.439       .  S
O1045      C1056   1.291       .  A
O1046     Zr1080   2.439       .  S
O1046      C1057   1.291       .  A
O1047     Zr1053   2.439       .  S
O1047      C1058   1.291       .  A
O1048      C1059   1.291       .  A
O1049     Zr1083   2.439       .  S
O1049      C1059   1.291       .  A
O1050     Zr1082   2.439       .  S
O1050      C1058   1.291       .  A
O1051     Zr1053   2.439       .  S
O1051      C1057   1.291       .  A
O1052     Zr1053   2.439       .  S
O1052      C1056   1.291       .  A
Zr1053     O1055   2.341       .  S
Zr1053     O1061   2.342       .  S
O1054     Zr1083   2.341       .  S
O1055     Zr1081   2.341       .  S
O1055     Zr1082   2.341       .  S
C1058      C1157   1.435       .  S
C1059      C1156   1.435       .  S
H1060      O1061   0.966       .  S
O1061     Zr1080   2.342       .  S
O1061     Zr1082   2.342       .  S
H1062      O1063   0.965       .  S
O1063     Zr1083   2.342       .  S
O1064     Zr1080   2.439       .  S
O1064      C1087   1.291       .  A
O1065     Zr1081   2.439       .  S
O1065      C1088   1.291       .  A
O1066     Zr1082   2.439       .  S
O1066      C1089   1.291       .  A
O1067     Zr1083   2.439       .  S
O1067      C1090   1.291       .  A
O1068     Zr1083   2.439       .  S
O1068      C1091   1.291       .  A
O1069     Zr1082   2.439       .  S
O1069      C1092   1.291       .  A
O1070     Zr1084   2.439       .  S
O1070      C1093   1.291       .  A
O1071      C1094   1.291       .  A
O1072     Zr1082   2.439       .  S
O1072      C1093   1.291       .  A
O1073     Zr1083   2.439       .  S
O1073      C1094   1.291       .  A
O1074     Zr1080   2.439       .  S
O1074      C1089   1.291       .  A
O1075     Zr1081   2.439       .  S
O1075      C1092   1.291       .  A
O1076      C1091   1.291       .  A
O1077      C1090   1.291       .  A
O1078     Zr1084   2.439       .  S
O1078      C1087   1.291       .  A
O1079     Zr1084   2.439       .  S
O1079      C1088   1.291       .  A
Zr1080     O1086   2.341       .  S
Zr1081     O1096   2.342       .  S
Zr1082     O1086   2.341       .  S
Zr1082     O1096   2.342       .  S
Zr1083     O1085   2.341       .  S
Zr1083     O1098   2.342       .  S
Zr1084     O1086   2.341       .  S
Zr1084     O1096   2.342       .  S
C1089      C1184   1.435       .  S
C1090      C1177   1.435       .  S
C1091      C1169   1.435       .  S
C1092      C1176   1.435       .  S
C1093      C1164   1.435       .  S
C1094      C1165   1.435       .  S
H1095      O1096   0.965       .  S
H1097      O1098   0.966       .  S
O1099     Zr1135   2.439       .  S
O1099      C1110   1.291       .  A
O1100     Zr1134   2.439   1_556  S
O1100      C1111   1.291       .  A
O1101      C1112   1.291       .  A
O1102     Zr1107   2.439   1_556  S
O1102      C1113   1.291       .  A
O1103     Zr1137   2.439       .  S
O1103      C1113   1.291       .  A
O1104     Zr1136   2.439       .  S
O1104      C1112   1.291       .  A
O1105     Zr1107   2.439   1_556  S
O1105      C1111   1.291       .  A
O1106     Zr1107   2.439       .  S
O1106      C1110   1.291       .  A
Zr1107     O1108   2.341   1_554  S
Zr1107     O1117   2.342   1_554  S
O1108     Zr1134   2.341   1_556  S
O1108     Zr1137   2.341       .  S
O1109     Zr1136   2.341       .  S
C1112      C1189   1.434       .  S
C1113      C1196   1.434       .  S
H1114      O1115   0.966       .  S
O1115     Zr1136   2.342       .  S
H1116      O1117   0.966       .  S
O1117     Zr1135   2.342   1_556  S
O1117     Zr1137   2.342       .  S
O1118     Zr1134   2.439       .  S
O1118      C1141   1.291       .  A
O1119     Zr1135   2.439   1_556  S
O1119      C1142   1.291       .  A
O1120     Zr1136   2.439       .  S
O1120      C1143   1.291       .  A
O1121     Zr1137   2.439       .  S
O1121      C1144   1.291       .  A
O1122     Zr1137   2.439       .  S
O1122      C1145   1.291       .  A
O1123     Zr1136   2.439       .  S
O1123      C1146   1.291       .  A
O1124      C1147   1.291       .  A
O1125     Zr1138   2.439   1_556  S
O1125      C1148   1.291       .  A
O1126     Zr1136   2.439       .  S
O1126      C1147   1.291       .  A
O1127     Zr1137   2.439       .  S
O1127      C1148   1.291       .  A
O1128      C1143   1.291       .  A
O1129      C1146   1.291       .  A
O1130     Zr1135   2.439   1_556  S
O1130      C1145   1.291       .  A
O1131     Zr1134   2.439   1_556  S
O1131      C1144   1.291       .  A
O1132     Zr1138   2.439       .  S
O1132      C1141   1.291       .  A
O1133     Zr1138   2.439   1_556  S
O1133      C1142   1.291       .  A
Zr1134     O1152   2.342   1_554  S
Zr1135     O1139   2.341   1_554  S
Zr1136     O1140   2.341       .  S
Zr1136     O1150   2.342       .  S
Zr1137     O1139   2.341       .  S
Zr1137     O1152   2.342       .  S
Zr1138     O1139   2.341   1_554  S
Zr1138     O1152   2.342   1_554  S
C1143      C1160   1.435       .  S
C1144      C1161   1.435       .  S
C1145      C1168   1.435       .  S
C1146      C1153   1.435       .  S
C1147      C1188   1.434       .  S
C1148      C1200   1.435       .  S
H1149      O1150   0.965       .  S
H1151      O1152   0.965       .  S
C1153      C1154   1.205       .  T
C1154      C1155   1.412       .  S
C1155      C1156   1.205       .  T
C1157      C1158   1.205       .  T
C1158      C1159   1.411       .  S
C1159      C1160   1.205       .  T
C1161      C1162   1.205       .  T
C1162      C1163   1.412       .  S
C1163      C1164   1.205       .  T
C1165      C1166   1.205       .  T
C1166      C1167   1.411       .  S
C1167      C1168   1.205       .  T
C1169      C1170   1.205       .  T
C1170      C1171   1.411       .  S
C1171      C1172   1.205       .  T
C1173      C1174   1.205       .  T
C1174      C1175   1.411       .  S
C1175      C1176   1.205       .  T
C1177      C1178   1.205       .  T
C1178      C1179   1.411       .  S
C1179      C1180   1.205       .  T
C1181      C1182   1.205       .  T
C1182      C1183   1.411       .  S
C1183      C1184   1.205       .  T
C1185      C1186   1.205       .  T
C1186      C1187   1.411       .  S
C1187      C1188   1.205       .  T
C1189      C1190   1.205       .  T
C1190      C1191   1.411       .  S
C1191      C1192   1.205       .  T
C1193      C1194   1.205       .  T
C1194      C1195   1.411       .  S
C1195      C1196   1.205       .  T
C1197      C1198   1.205       .  T
C1198      C1199   1.411       .  S
C1199      C1200   1.205       .  T
C1202      C1203   1.411       .  S
C1205      C1206   1.205       .  T
C1206      C1207   1.411       .  S
C1207      C1208   1.205       .  T
C1210      C1211   1.411       .  S
C1213      C1214   1.205       .  T
C1214      C1215   1.411       .  S
C1215      C1216   1.205       .  T
C1218      C1219   1.411       .  S
C1221      C1222   1.205       .  T
C1222      C1223   1.411       .  S
C1223      C1224   1.205       .  T
C1225      C1226   1.205       .  T
C1226      C1227   1.411       .  S
C1227      C1228   1.205       .  T
C1229      C1230   1.205       .  T
C1230      C1231   1.411       .  S
C1231      C1232   1.205       .  T
C1233      C1234   1.205       .  T
C1234      C2483   1.412       .  S
C1235      C2484   1.205       .  T
C1235      C2482   1.412       .  S
C1236      C2483   1.205       .  T
C1237      C1238   1.205       .  T
C1238      C2487   1.411       .  S
C1239      C2488   1.205       .  T
C1239      C2486   1.411       .  S
C1240      C2487   1.205       .  T
C1241      C1242   1.205       .  T
C1242      C1243   1.412       .  S
C1243      C1244   1.205       .  T
C1245      C1246   1.205       .  T
C1246      C2495   1.411       .  S
C1247      C2496   1.205       .  T
C1247      C2494   1.411       .  S
C1248      C2495   1.205       .  T
O1249     Zr1285   2.439   1_545  S
O1249      C1260   1.291       .  A
O1250     Zr1284   2.439   1_545  S
O1250      C1261   1.291       .  A
O1251     Zr1257   2.439       .  S
O1251      C1262   1.291       .  A
O1252      C1263   1.291       .  A
O1253     Zr1287   2.439   1_546  S
O1253      C1263   1.291       .  A
O1254     Zr1286   2.439   1_545  S
O1254      C1262   1.291       .  A
O1255     Zr1569   2.439       .  S
O1255      C1261   1.291       .  A
O1256     Zr1257   2.439       .  S
O1256      C1260   1.291       .  A
Zr1257     O1567   2.439   1_554  S
Zr1257     O1259   2.341       .  S
Zr1257     O1577   2.342   1_554  S
O1258     Zr1599   2.341   1_545  S
O1259     Zr1285   2.341   1_545  S
O1259     Zr1286   2.341   1_545  S
C1260      C1557   1.435       .  S
C1261      C1545   1.435       .  S
C1262      C1528   1.435       .  S
C1263      C1520   1.435       .  S
H1264      O1265   0.965       .  S
O1265     Zr1569   2.342       .  S
O1265     Zr1284   2.342   1_545  S
O1265     Zr1598   2.342   1_545  S
H1266      O1267   0.966       .  S
O1267     Zr1287   2.342   1_545  S
O1268     Zr1908   2.439       .  S
O1268      C1291   1.291       .  A
O1269     Zr1909   2.439       .  S
O1269      C1292   1.291       .  A
O1270     Zr1598   2.439       .  S
O1270      C1293   1.291       .  A
O1271     Zr1599   2.439       .  S
O1271      C1294   1.291       .  A
O1272     Zr1287   2.439       .  S
O1272      C1295   1.291       .  A
O1273     Zr1286   2.439       .  S
O1273      C1296   1.291       .  A
O1274     Zr1288   2.439   1_556  S
O1274      C1297   1.291       .  A
O1275      C1298   1.291       .  A
O1276     Zr1910   2.439   1_556  S
O1276      C1297   1.291       .  A
O1277     Zr1911   2.439       .  S
O1277      C1298   1.291       .  A
O1278     Zr1284   2.439       .  S
O1278      C1293   1.291       .  A
O1279     Zr1285   2.439       .  S
O1279      C1296   1.291       .  A
O1280      C1295   1.291       .  A
O1281      C1294   1.291       .  A
O1282     Zr1600   2.439       .  S
O1282      C1291   1.291       .  A
O1283     Zr1288   2.439       .  S
O1283      C1292   1.291       .  A
Zr1284     O1892   2.439       .  S
Zr1284     O1914   2.341       .  S
Zr1285     O1893   2.439       .  S
Zr1285     O1924   2.342       .  S
Zr1286     O1582   2.439   1_554  S
Zr1286     O1900   2.439   1_554  S
Zr1286     O1577   2.342   1_564  S
Zr1286     O2226   2.341   1_554  S
Zr1286     O1924   2.342       .  S
Zr1287     O1583   2.439   1_554  S
Zr1287     O1901   2.439       .  S
Zr1287     O1570   2.341   1_564  S
Zr1287     O1913   2.341       .  S
Zr1287     O2238   2.342   1_554  S
Zr1288     O1594   2.439   1_554  S
Zr1288     O1602   2.341   1_554  S
Zr1288     O1300   2.342       .  S
O1289     Zr1911   2.341       .  S
O1290     Zr1908   2.341       .  S
O1290     Zr2222   2.341       .  S
O1290     Zr1600   2.341       .  S
C1291      C1549   1.435       .  S
C1292      C1556   1.435       .  S
C1293      C1533   1.435       .  S
C1294      C1529   1.434       .  S
C1295      C1541   1.434       .  S
C1296      C1540   1.434       .  S
C1297      C1524   1.435       .  S
C1298      C1516   1.435       .  S
H1299      O1300   0.965       .  S
O1300     Zr1909   2.342       .  S
O1300     Zr1910   2.342       .  S
H1301      O1302   0.966       .  S
O1302     Zr2223   2.342       .  S
O1303     Zr1339   2.439       .  S
O1303      C1314   1.291       .  A
O1304     Zr1338   2.439       .  S
O1304      C1315   1.291       .  A
O1305     Zr1311   2.439       .  S
O1305      C1316   1.291       .  A
O1306      C1317   1.291       .  A
O1307     Zr1341   2.439       .  S
O1307      C1317   1.291       .  A
O1308     Zr1340   2.439       .  S
O1308      C1316   1.291       .  A
O1309     Zr1311   2.439       .  S
O1309      C1315   1.291       .  A
O1310     Zr1311   2.439       .  S
O1310      C1314   1.291       .  A
Zr1311     O1313   2.341       .  S
Zr1311     O1319   2.342       .  S
O1312     Zr1341   2.341       .  S
O1313     Zr1339   2.341       .  S
O1313     Zr1340   2.341       .  S
C1314      C1560   1.435       .  S
C1315      C1548   1.435       .  S
C1316      C1492   1.435       .  S
C1317      C1484   1.435       .  S
H1318      O1319   0.965       .  S
O1319     Zr1338   2.342       .  S
O1319     Zr1340   2.342       .  S
H1320      O1321   0.966       .  S
O1321     Zr1341   2.342       .  S
O1322     Zr1338   2.439       .  S
O1322      C1345   1.291       .  A
O1323     Zr1339   2.439       .  S
O1323      C1346   1.291       .  A
O1324     Zr1340   2.439       .  S
O1324      C1347   1.291       .  A
O1325     Zr1341   2.439       .  S
O1325      C1348   1.291       .  A
O1326     Zr1341   2.439       .  S
O1326      C1349   1.291       .  A
O1327     Zr1340   2.439       .  S
O1327      C1350   1.291       .  A
O1328     Zr1342   2.439       .  S
O1328      C1351   1.291       .  A
O1329      C1352   1.291       .  A
O1330     Zr1340   2.439       .  S
O1330      C1351   1.291       .  A
O1331     Zr1341   2.439       .  S
O1331      C1352   1.291       .  A
O1332     Zr1338   2.439       .  S
O1332      C1347   1.291       .  A
O1333     Zr1339   2.439       .  S
O1333      C1350   1.291       .  A
O1334      C1349   1.291       .  A
O1335      C1348   1.291       .  A
O1336     Zr1342   2.439       .  S
O1336      C1345   1.291       .  A
O1337     Zr1342   2.439       .  S
O1337      C1346   1.291       .  A
Zr1338     O1344   2.341       .  S
Zr1339     O1354   2.342       .  S
Zr1340     O1344   2.341       .  S
Zr1340     O1354   2.342       .  S
Zr1341     O1343   2.341       .  S
Zr1341     O1356   2.342       .  S
Zr1342     O1344   2.341       .  S
Zr1342     O1354   2.342       .  S
C1345      C1552   1.435       .  S
C1346      C1553   1.435       .  S
C1347      C1505   1.434       .  S
C1348      C1509   1.434       .  S
C1349      C1497   1.434       .  S
C1350      C1504   1.435       .  S
C1351      C1493   1.435       .  S
C1352      C1485   1.435       .  S
H1353      O1354   0.965       .  S
H1355      O1356   0.966       .  S
O1357     Zr1393   2.439       .  S
O1357      C1368   1.291       .  A
O1358     Zr1392   2.439       .  S
O1358      C1369   1.291       .  A
O1359     Zr1365   2.439       .  S
O1359      C1370   1.291       .  A
O1360     Zr1989   2.439   1_545  S
O1360      C1371   1.291       .  A
O1361     Zr1395   2.439       .  S
O1361      C1371   1.291       .  A
O1362     Zr1394   2.439       .  S
O1362      C1370   1.291       .  A
O1363     Zr1365   2.439       .  S
O1363      C1369   1.291       .  A
O1364     Zr1365   2.439       .  S
O1364      C1368   1.291       .  A
Zr1365     O1984   2.439       .  S
Zr1365     O1990   2.341       .  S
Zr1365     O1367   2.341       .  S
Zr1365     O1999   2.342       .  S
Zr1365     O1373   2.342       .  S
O1366     Zr1989   2.341   1_545  S
O1366     Zr2016   2.341   1_545  S
O1366     Zr1395   2.341       .  S
O1367     Zr1393   2.341       .  S
O1367     Zr1394   2.341       .  S
C1368      C2168   1.435       .  S
C1369      C2161   1.434       .  S
C1370      C1469   1.435       .  S
C1371      C1468   1.435       .  S
H1372      O1373   0.966       .  S
O1373     Zr1392   2.342       .  S
O1373     Zr1394   2.342       .  S
H1374      O1375   0.965       .  S
O1375     Zr1989   2.342   1_545  S
O1375     Zr2017   2.342   1_545  S
O1375     Zr1395   2.342       .  S
O1376     Zr1392   2.439       .  S
O1376      C1399   1.291       .  A
O1377     Zr1393   2.439       .  S
O1377      C1400   1.291       .  A
O1378     Zr1394   2.439       .  S
O1378      C1401   1.291       .  A
O1379     Zr1395   2.439       .  S
O1379      C1402   1.291       .  A
O1380     Zr1395   2.439       .  S
O1380      C1403   1.291       .  A
O1381     Zr1394   2.439       .  S
O1381      C1404   1.291       .  A
O1382     Zr1396   2.439       .  S
O1382      C1405   1.291       .  A
O1383     Zr2020   2.439   1_545  S
O1383      C1406   1.291       .  A
O1384     Zr1394   2.439       .  S
O1384      C1405   1.291       .  A
O1385     Zr1395   2.439       .  S
O1385      C1406   1.291       .  A
O1386     Zr1392   2.439       .  S
O1386      C1401   1.291       .  A
O1387     Zr1393   2.439       .  S
O1387      C1404   1.291       .  A
O1388     Zr2017   2.439   1_545  S
O1388      C1403   1.291       .  A
O1389     Zr2016   2.439   1_545  S
O1389      C1402   1.291       .  A
O1390     Zr1396   2.439       .  S
O1390      C1399   1.291       .  A
O1391     Zr1396   2.439       .  S
O1391      C1400   1.291       .  A
Zr1392     O2013   2.439       .  S
Zr1392     O1990   2.341       .  S
Zr1392     O1398   2.341       .  S
Zr1392     O2034   2.342       .  S
Zr1393     O2012   2.439       .  S
Zr1393     O1999   2.342       .  S
Zr1393     O2021   2.341       .  S
Zr1393     O1408   2.342       .  S
Zr1394     O1398   2.341       .  S
Zr1394     O1408   2.342       .  S
Zr1395     O1397   2.341       .  S
Zr1395     O1410   2.342       .  S
Zr1396     O2007   2.439       .  S
Zr1396     O2021   2.341       .  S
Zr1396     O1398   2.341       .  S
Zr1396     O2034   2.342       .  S
Zr1396     O1408   2.342       .  S
O1397     Zr2017   2.341   1_545  S
O1397     Zr2020   2.341   1_545  S
C1399      C2160   1.434       .  S
C1400      C2156   1.434       .  S
C1401      C1496   1.435       .  S
C1402      C1489   1.435       .  S
C1403      C1481   1.435       .  S
C1404      C1488   1.435       .  S
C1405      C1476   1.435       .  S
C1406      C1477   1.435       .  S
H1407      O1408   0.965       .  S
H1409      O1410   0.966       .  S
O1410     Zr2016   2.342   1_545  S
O1410     Zr2020   2.342   1_545  S
O1411     Zr1447   2.439       .  S
O1411      C1422   1.291       .  A
O1412     Zr1446   2.439       .  S
O1412      C1423   1.291       .  A
O1413     Zr1731   2.439       .  S
O1413      C1424   1.291       .  A
O1414     Zr1419   2.439       .  S
O1414      C1425   1.291       .  A
O1415     Zr1449   2.439       .  S
O1415      C1425   1.291       .  A
O1416     Zr1448   2.439       .  S
O1416      C1424   1.291       .  A
O1417     Zr1419   2.439       .  S
O1417      C1423   1.291       .  A
O1418     Zr1419   2.439       .  S
O1418      C1422   1.291       .  A
Zr1419     O1725   2.439       .  S
Zr1419     O1420   2.341       .  S
Zr1419     O1733   2.341       .  S
Zr1419     O1429   2.342       .  S
Zr1419     O1739   2.342       .  S
O1420     Zr1446   2.341       .  S
O1420     Zr1449   2.341       .  S
O1421     Zr1731   2.341       .  S
O1421     Zr1759   2.341       .  S
O1421     Zr1448   2.341       .  S
C1422      C1837   1.435       .  S
C1423      C1833   1.435       .  S
C1424      C1501   1.434       .  S
C1425      C1508   1.434       .  S
H1426      O1427   0.966       .  S
O1427     Zr1731   2.342       .  S
O1427     Zr1758   2.342       .  S
O1427     Zr1448   2.342       .  S
H1428      O1429   0.966       .  S
O1429     Zr1447   2.342       .  S
O1429     Zr1449   2.342       .  S
O1430     Zr1446   2.439       .  S
O1430      C1453   1.291       .  A
O1431     Zr1447   2.439       .  S
O1431      C1454   1.291       .  A
O1432     Zr1448   2.439       .  S
O1432      C1455   1.291       .  A
O1433     Zr1449   2.439       .  S
O1433      C1456   1.291       .  A
O1434     Zr1449   2.439       .  S
O1434      C1457   1.291       .  A
O1435     Zr1448   2.439       .  S
O1435      C1458   1.291       .  A
O1436     Zr1762   2.439       .  S
O1436      C1459   1.291       .  A
O1437     Zr1450   2.439       .  S
O1437      C1460   1.291       .  A
O1438     Zr1448   2.439       .  S
O1438      C1459   1.291       .  A
O1439     Zr1449   2.439       .  S
O1439      C1460   1.291       .  A
O1440     Zr1758   2.439       .  S
O1440      C1455   1.291       .  A
O1441     Zr1759   2.439       .  S
O1441      C1458   1.291       .  A
O1442     Zr1447   2.439       .  S
O1442      C1457   1.291       .  A
O1443     Zr1446   2.439       .  S
O1443      C1456   1.291       .  A
O1444     Zr1450   2.439       .  S
O1444      C1453   1.291       .  A
O1445     Zr1450   2.439       .  S
O1445      C1454   1.291       .  A
Zr1446     O1752   2.439       .  S
Zr1446     O1739   2.342       .  S
Zr1446     O1764   2.341       .  S
Zr1446     O1464   2.342       .  S
Zr1447     O1753   2.439       .  S
Zr1447     O1733   2.341       .  S
Zr1447     O1451   2.341       .  S
Zr1447     O1774   2.342       .  S
Zr1448     O1452   2.341       .  S
Zr1448     O1462   2.342       .  S
Zr1449     O1451   2.341       .  S
Zr1449     O1464   2.342       .  S
Zr1450     O1748   2.439       .  S
Zr1450     O1451   2.341       .  S
Zr1450     O1764   2.341       .  S
Zr1450     O1464   2.342       .  S
Zr1450     O1774   2.342       .  S
O1452     Zr1758   2.341       .  S
O1452     Zr1762   2.341       .  S
C1453      C1825   1.435       .  S
C1454      C1829   1.435       .  S
C1455      C1472   1.435       .  S
C1456      C1473   1.435       .  S
C1457      C1480   1.435       .  S
C1458      C1465   1.435       .  S
C1459      C1500   1.434       .  S
C1460      C1512   1.435       .  S
H1461      O1462   0.965       .  S
O1462     Zr1759   2.342       .  S
O1462     Zr1762   2.342       .  S
H1463      O1464   0.965       .  S
C1465      C1466   1.205       .  T
C1466      C1467   1.412       .  S
C1467      C1468   1.205       .  T
C1469      C1470   1.205       .  T
C1470      C1471   1.411       .  S
C1471      C1472   1.205       .  T
C1473      C1474   1.205       .  T
C1474      C1475   1.412       .  S
C1475      C1476   1.205       .  T
C1477      C1478   1.205       .  T
C1478      C1479   1.411       .  S
C1479      C1480   1.205       .  T
C1481      C1482   1.205       .  T
C1482      C1483   1.411       .  S
C1483      C1484   1.205       .  T
C1485      C1486   1.205       .  T
C1486      C1487   1.411       .  S
C1487      C1488   1.205       .  T
C1489      C1490   1.205       .  T
C1490      C1491   1.411       .  S
C1491      C1492   1.205       .  T
C1493      C1494   1.205       .  T
C1494      C1495   1.411       .  S
C1495      C1496   1.205       .  T
C1497      C1498   1.205       .  T
C1498      C1499   1.411       .  S
C1499      C1500   1.205       .  T
C1501      C1502   1.205       .  T
C1502      C1503   1.411       .  S
C1503      C1504   1.205       .  T
C1505      C1506   1.205       .  T
C1506      C1507   1.411       .  S
C1507      C1508   1.205       .  T
C1509      C1510   1.205       .  T
C1510      C1511   1.411       .  S
C1511      C1512   1.205       .  T
C1513      C1765   1.435       .  S
C1513      C1826   1.205       .  T
C1514      C1825   1.205       .  T
C1514      C1515   1.411       .  S
C1515      C1828   1.205       .  T
C1516      C1827   1.205       .  T
C1517      C1766   1.435       .  S
C1517      C1518   1.205       .  T
C1518      C1519   1.411       .  S
C1519      C1520   1.205       .  T
C1521      C1735   1.435       .  S
C1521      C1834   1.205       .  T
C1522      C1833   1.205       .  T
C1522      C1523   1.411       .  S
C1523      C1836   1.205       .  T
C1524      C1835   1.205       .  T
C1525      C1734   1.435       .  S
C1525      C1526   1.205       .  T
C1526      C1527   1.411       .  S
C1527      C1528   1.205       .  T
C1529      C2154   1.205       .  T
C1530      C2153   1.205       .  T
C1530      C1531   1.411       .  S
C1531      C2156   1.205       .  T
C1532      C2024   1.434       .  S
C1532      C2155   1.205       .  T
C1533      C1534   1.205       .  T
C1534      C1535   1.411       .  S
C1535      C1536   1.205       .  T
C1536      C2023   1.434       .  S
C1537      C1993   1.434       .  S
C1537      C1538   1.205       .  T
C1538      C1539   1.411       .  S
C1539      C1540   1.205       .  T
C1541      C1542   1.205       .  T
C1542      C1543   1.411       .  S
C1543      C1544   1.205       .  T
C1544      C1992   1.435       .  S
C1545      C1546   1.205       .  T
C1549      C1550   1.205       .  T
C1553      C1554   1.205       .  T
C1554      C1555   1.412       .  S
C1555      C1556   1.205       .  T
C1557      C1558   1.205       .  T
O1561     Zr1597   2.439   1_545  S
O1561      C1572   1.291       .  A
O1562     Zr1596   2.439   1_545  S
O1562      C1573   1.291       .  A
O1563     Zr1569   2.439       .  S
O1563      C1574   1.291       .  A
O1564      C1575   1.291       .  A
O1565     Zr1599   2.439   1_545  S
O1565      C1575   1.291       .  A
O1566     Zr1598   2.439   1_545  S
O1566      C1574   1.291       .  A
O1567      C1573   1.291       .  A
O1568     Zr1569   2.439       .  S
O1568      C1572   1.291       .  A
Zr1569     O1571   2.341       .  S
O1571     Zr1597   2.341   1_545  S
O1571     Zr1598   2.341   1_545  S
C1572      C1869   1.435       .  S
C1573      C1857   1.435       .  S
C1574      C1840   1.435       .  S
C1575      C1832   1.435       .  S
H1576      O1577   0.965       .  S
O1577     Zr1596   2.342   1_545  S
H1578      O1579   0.966       .  S
O1579     Zr1599   2.342   1_545  S
O1580     Zr2220   2.439       .  S
O1580      C1603   1.291       .  A
O1581     Zr2221   2.439       .  S
O1581      C1604   1.291       .  A
O1582      C1605   1.291       .  A
O1583      C1606   1.291       .  A
O1584     Zr1599   2.439       .  S
O1584      C1607   1.291       .  A
O1585     Zr1598   2.439       .  S
O1585      C1608   1.291       .  A
O1586     Zr1600   2.439       .  S
O1586      C1609   1.291       .  A
O1587      C1610   1.291       .  A
O1588     Zr2222   2.439       .  S
O1588      C1609   1.291       .  A
O1589     Zr2223   2.439       .  S
O1589      C1610   1.291       .  A
O1590     Zr1596   2.439       .  S
O1590      C1605   1.291       .  A
O1591     Zr1597   2.439       .  S
O1591      C1608   1.291       .  A
O1592      C1607   1.291       .  A
O1593      C1606   1.291       .  A
O1594      C1603   1.291       .  A
O1595     Zr1600   2.439       .  S
O1595      C1604   1.291       .  A
Zr1596     O2204   2.439       .  S
Zr1596     O2226   2.341       .  S
Zr1597     O2205   2.439       .  S
Zr1597     O2236   2.342       .  S
Zr1598     O2212   2.439       .  S
Zr1598     O1914   2.341       .  S
Zr1598     O2236   2.342       .  S
Zr1599     O2213   2.439       .  S
Zr1599     O2225   2.341       .  S
Zr1599     O1926   2.342       .  S
Zr1600     O1612   2.342       .  S
O1601     Zr2223   2.341       .  S
O1602     Zr2220   2.341       .  S
O1602     Zr1910   2.341   1_556  S
C1603      C1861   1.435       .  S
C1604      C1868   1.435       .  S
C1605      C1845   1.435       .  S
C1606      C1841   1.434       .  S
C1607      C1853   1.434       .  S
C1608      C1852   1.434       .  S
C1609      C1836   1.435       .  S
C1610      C1828   1.435       .  S
H1611      O1612   0.965       .  S
O1612     Zr2221   2.342       .  S
O1612     Zr2222   2.342       .  S
H1613      O1614   0.966       .  S
O1614     Zr1911   2.342   1_556  S
O1615     Zr1651   2.439       .  S
O1615      C1626   1.291       .  A
O1616     Zr1650   2.439       .  S
O1616      C1627   1.291       .  A
O1617     Zr1623   2.439       .  S
O1617      C1628   1.291       .  A
O1618      C1629   1.291       .  A
O1619     Zr1653   2.439       .  S
O1619      C1629   1.291       .  A
O1620     Zr1652   2.439       .  S
O1620      C1628   1.291       .  A
O1621     Zr1623   2.439       .  S
O1621      C1627   1.291       .  A
O1622     Zr1623   2.439       .  S
O1622      C1626   1.291       .  A
Zr1623     O1625   2.341       .  S
Zr1623     O1631   2.342       .  S
O1624     Zr1653   2.341       .  S
O1625     Zr1651   2.341       .  S
O1625     Zr1652   2.341       .  S
C1626      C1872   1.435       .  S
C1627      C1860   1.435       .  S
C1628      C1804   1.435       .  S
C1629      C1796   1.435       .  S
H1630      O1631   0.965       .  S
O1631     Zr1650   2.342       .  S
O1631     Zr1652   2.342       .  S
H1632      O1633   0.966       .  S
O1633     Zr1653   2.342       .  S
O1634     Zr1650   2.439       .  S
O1634      C1657   1.291       .  A
O1635     Zr1651   2.439       .  S
O1635      C1658   1.291       .  A
O1636     Zr1652   2.439       .  S
O1636      C1659   1.291       .  A
O1637     Zr1653   2.439       .  S
O1637      C1660   1.291       .  A
O1638     Zr1653   2.439       .  S
O1638      C1661   1.291       .  A
O1639     Zr1652   2.439       .  S
O1639      C1662   1.291       .  A
O1640     Zr1654   2.439       .  S
O1640      C1663   1.291       .  A
O1641      C1664   1.291       .  A
O1642     Zr1652   2.439       .  S
O1642      C1663   1.291       .  A
O1643     Zr1653   2.439       .  S
O1643      C1664   1.291       .  A
O1644     Zr1650   2.439       .  S
O1644      C1659   1.291       .  A
O1645     Zr1651   2.439       .  S
O1645      C1662   1.291       .  A
O1646      C1661   1.291       .  A
O1647      C1660   1.291       .  A
O1648     Zr1654   2.439       .  S
O1648      C1657   1.291       .  A
O1649     Zr1654   2.439       .  S
O1649      C1658   1.291       .  A
Zr1650     O1656   2.341       .  S
Zr1651     O1666   2.342       .  S
Zr1652     O1656   2.341       .  S
Zr1652     O1666   2.342       .  S
Zr1653     O1655   2.341       .  S
Zr1653     O1668   2.342       .  S
Zr1654     O1656   2.341       .  S
Zr1654     O1666   2.342       .  S
C1657      C1864   1.435       .  S
C1658      C1865   1.435       .  S
C1659      C1817   1.434       .  S
C1660      C1821   1.434       .  S
C1661      C1809   1.434       .  S
C1662      C1816   1.435       .  S
C1663      C1805   1.435       .  S
C1664      C1797   1.435       .  S
H1665      O1666   0.965       .  S
H1667      O1668   0.966       .  S
O1669     Zr1705   2.439       .  S
O1669      C1680   1.291       .  A
O1670     Zr1704   2.439       .  S
O1670      C1681   1.291       .  A
O1671     Zr1677   2.439       .  S
O1671      C1682   1.291       .  A
O1672     Zr2301   2.439   1_545  S
O1672      C1683   1.291       .  A
O1673     Zr1707   2.439       .  S
O1673      C1683   1.291       .  A
O1674     Zr1706   2.439       .  S
O1674      C1682   1.291       .  A
O1675     Zr1677   2.439       .  S
O1675      C1681   1.291       .  A
O1676     Zr1677   2.439       .  S
O1676      C1680   1.291       .  A
Zr1677     O2296   2.439       .  S
Zr1677     O2302   2.341       .  S
Zr1677     O1679   2.341       .  S
Zr1677     O2311   2.342       .  S
Zr1677     O1685   2.342       .  S
O1678     Zr2301   2.341   1_545  S
O1678     Zr2328   2.341   1_545  S
O1678     Zr1707   2.341       .  S
O1679     Zr1705   2.341       .  S
O1679     Zr1706   2.341       .  S
C1680      C2480   1.435       .  S
C1681      C2473   1.434       .  S
C1682      C1781   1.435       .  S
C1683      C1780   1.435       .  S
H1684      O1685   0.966       .  S
O1685     Zr1704   2.342       .  S
O1685     Zr1706   2.342       .  S
H1686      O1687   0.965       .  S
O1687     Zr2301   2.342   1_545  S
O1687     Zr2329   2.342   1_545  S
O1687     Zr1707   2.342       .  S
O1688     Zr1704   2.439       .  S
O1688      C1711   1.291       .  A
O1689     Zr1705   2.439       .  S
O1689      C1712   1.291       .  A
O1690     Zr1706   2.439       .  S
O1690      C1713   1.291       .  A
O1691     Zr1707   2.439       .  S
O1691      C1714   1.291       .  A
O1692     Zr1707   2.439       .  S
O1692      C1715   1.291       .  A
O1693     Zr1706   2.439       .  S
O1693      C1716   1.291       .  A
O1694     Zr1708   2.439       .  S
O1694      C1717   1.291       .  A
O1695     Zr2332   2.439   1_545  S
O1695      C1718   1.291       .  A
O1696     Zr1706   2.439       .  S
O1696      C1717   1.291       .  A
O1697     Zr1707   2.439       .  S
O1697      C1718   1.291       .  A
O1698     Zr1704   2.439       .  S
O1698      C1713   1.291       .  A
O1699     Zr1705   2.439       .  S
O1699      C1716   1.291       .  A
O1700     Zr2329   2.439   1_545  S
O1700      C1715   1.291       .  A
O1701     Zr2328   2.439   1_545  S
O1701      C1714   1.291       .  A
O1702     Zr1708   2.439       .  S
O1702      C1711   1.291       .  A
O1703     Zr1708   2.439       .  S
O1703      C1712   1.291       .  A
Zr1704     O2325   2.439       .  S
Zr1704     O2302   2.341       .  S
Zr1704     O1710   2.341       .  S
Zr1704     O2346   2.342       .  S
Zr1705     O2324   2.439       .  S
Zr1705     O2311   2.342       .  S
Zr1705     O2333   2.341       .  S
Zr1705     O1720   2.342       .  S
Zr1706     O1710   2.341       .  S
Zr1706     O1720   2.342       .  S
Zr1707     O1709   2.341       .  S
Zr1707     O1722   2.342       .  S
Zr1708     O2319   2.439       .  S
Zr1708     O2333   2.341       .  S
Zr1708     O1710   2.341       .  S
Zr1708     O2346   2.342       .  S
Zr1708     O1720   2.342       .  S
O1709     Zr2329   2.341   1_545  S
O1709     Zr2332   2.341   1_545  S
C1711      C2472   1.434       .  S
C1712      C2468   1.434       .  S
C1713      C1808   1.435       .  S
C1714      C1801   1.435       .  S
C1715      C1793   1.435       .  S
C1716      C1800   1.435       .  S
C1717      C1788   1.435       .  S
C1718      C1789   1.435       .  S
H1719      O1720   0.965       .  S
H1721      O1722   0.966       .  S
O1722     Zr2328   2.342   1_545  S
O1722     Zr2332   2.342   1_545  S
O1723     Zr1759   2.439       .  S
O1723      C1734   1.291       .  A
O1724     Zr1758   2.439   1_556  S
O1724      C1735   1.291       .  A
O1725      C1736   1.291       .  A
O1726     Zr1731   2.439   1_556  S
O1726      C1737   1.291       .  A
O1727     Zr1761   2.439       .  S
O1727      C1737   1.291       .  A
O1728     Zr1760   2.439       .  S
O1728      C1736   1.291       .  A
O1729     Zr1731   2.439   1_556  S
O1729      C1735   1.291       .  A
O1730     Zr1731   2.439       .  S
O1730      C1734   1.291       .  A
Zr1731     O1732   2.341   1_554  S
Zr1731     O1741   2.342   1_554  S
O1732     Zr1758   2.341   1_556  S
O1732     Zr1761   2.341       .  S
O1733     Zr1760   2.341       .  S
C1736      C1813   1.434       .  S
C1737      C1820   1.434       .  S
H1738      O1739   0.966       .  S
O1739     Zr1760   2.342       .  S
H1740      O1741   0.966       .  S
O1741     Zr1759   2.342   1_556  S
O1741     Zr1761   2.342       .  S
O1742     Zr1758   2.439       .  S
O1742      C1765   1.291       .  A
O1743     Zr1759   2.439   1_556  S
O1743      C1766   1.291       .  A
O1744     Zr1760   2.439       .  S
O1744      C1767   1.291       .  A
O1745     Zr1761   2.439       .  S
O1745      C1768   1.291       .  A
O1746     Zr1761   2.439       .  S
O1746      C1769   1.291       .  A
O1747     Zr1760   2.439       .  S
O1747      C1770   1.291       .  A
O1748      C1771   1.291       .  A
O1749     Zr1762   2.439   1_556  S
O1749      C1772   1.291       .  A
O1750     Zr1760   2.439       .  S
O1750      C1771   1.291       .  A
O1751     Zr1761   2.439       .  S
O1751      C1772   1.291       .  A
O1752      C1767   1.291       .  A
O1753      C1770   1.291       .  A
O1754     Zr1759   2.439   1_556  S
O1754      C1769   1.291       .  A
O1755     Zr1758   2.439   1_556  S
O1755      C1768   1.291       .  A
O1756     Zr1762   2.439       .  S
O1756      C1765   1.291       .  A
O1757     Zr1762   2.439   1_556  S
O1757      C1766   1.291       .  A
Zr1758     O1776   2.342   1_554  S
Zr1759     O1763   2.341   1_554  S
Zr1760     O1764   2.341       .  S
Zr1760     O1774   2.342       .  S
Zr1761     O1763   2.341       .  S
Zr1761     O1776   2.342       .  S
Zr1762     O1763   2.341   1_554  S
Zr1762     O1776   2.342   1_554  S
C1767      C1784   1.435       .  S
C1768      C1785   1.435       .  S
C1769      C1792   1.435       .  S
C1770      C1777   1.435       .  S
C1771      C1812   1.434       .  S
C1772      C1824   1.435       .  S
H1773      O1774   0.965       .  S
H1775      O1776   0.965       .  S
C1777      C1778   1.205       .  T
C1778      C1779   1.412       .  S
C1779      C1780   1.205       .  T
C1781      C1782   1.205       .  T
C1782      C1783   1.411       .  S
C1783      C1784   1.205       .  T
C1785      C1786   1.205       .  T
C1786      C1787   1.412       .  S
C1787      C1788   1.205       .  T
C1789      C1790   1.205       .  T
C1790      C1791   1.411       .  S
C1791      C1792   1.205       .  T
C1793      C1794   1.205       .  T
C1794      C1795   1.411       .  S
C1795      C1796   1.205       .  T
C1797      C1798   1.205       .  T
C1798      C1799   1.411       .  S
C1799      C1800   1.205       .  T
C1801      C1802   1.205       .  T
C1802      C1803   1.411       .  S
C1803      C1804   1.205       .  T
C1805      C1806   1.205       .  T
C1806      C1807   1.411       .  S
C1807      C1808   1.205       .  T
C1809      C1810   1.205       .  T
C1810      C1811   1.411       .  S
C1811      C1812   1.205       .  T
C1813      C1814   1.205       .  T
C1814      C1815   1.411       .  S
C1815      C1816   1.205       .  T
C1817      C1818   1.205       .  T
C1818      C1819   1.411       .  S
C1819      C1820   1.205       .  T
C1821      C1822   1.205       .  T
C1822      C1823   1.411       .  S
C1823      C1824   1.205       .  T
C1826      C1827   1.411       .  S
C1829      C1830   1.205       .  T
C1830      C1831   1.411       .  S
C1831      C1832   1.205       .  T
C1834      C1835   1.411       .  S
C1837      C1838   1.205       .  T
C1838      C1839   1.411       .  S
C1839      C1840   1.205       .  T
C1841      C2466   1.205       .  T
C1842      C2465   1.205       .  T
C1842      C1843   1.411       .  S
C1843      C2468   1.205       .  T
C1844      C2336   1.434       .  S
C1844      C2467   1.205       .  T
C1845      C1846   1.205       .  T
C1846      C1847   1.411       .  S
C1847      C1848   1.205       .  T
C1848      C2335   1.434       .  S
C1849      C2305   1.434       .  S
C1849      C1850   1.205       .  T
C1850      C1851   1.411       .  S
C1851      C1852   1.205       .  T
C1853      C1854   1.205       .  T
C1854      C1855   1.411       .  S
C1855      C1856   1.205       .  T
C1856      C2304   1.435       .  S
C1857      C1858   1.205       .  T
C1861      C1862   1.205       .  T
C1865      C1866   1.205       .  T
C1866      C1867   1.412       .  S
C1867      C1868   1.205       .  T
C1869      C1870   1.205       .  T
O1873     Zr1909   2.439       .  S
O1873      C1884   1.291       .  A
O1874     Zr1908   2.439       .  S
O1874      C1885   1.291       .  A
O1875     Zr1881   2.439       .  S
O1875      C1886   1.291       .  A
O1876      C1887   1.291       .  A
O1877     Zr1911   2.439   1_556  S
O1877      C1887   1.291       .  A
O1878     Zr1910   2.439       .  S
O1878      C1886   1.291       .  A
O1879     Zr2193   2.439       .  S
O1879      C1885   1.291       .  A
O1880     Zr1881   2.439       .  S
O1880      C1884   1.291       .  A
Zr1881     O2191   2.439   1_554  S
Zr1881     O1883   2.341       .  S
Zr1881     O2201   2.342   1_554  S
O1882     Zr2223   2.341       .  S
O1883     Zr1909   2.341       .  S
O1883     Zr1910   2.341       .  S
C1884      C2181   1.435       .  S
C1885      C2169   1.435       .  S
C1886      C2152   1.435       .  S
C1887      C2144   1.435       .  S
H1888      O1889   0.965       .  S
O1889     Zr2193   2.342       .  S
O1889     Zr1908   2.342       .  S
O1889     Zr2222   2.342       .  S
H1890      O1891   0.966       .  S
O1891     Zr1911   2.342       .  S
O1892      C1915   1.291       .  A
O1893      C1916   1.291       .  A
O1894     Zr2222   2.439       .  S
O1894      C1917   1.291       .  A
O1895     Zr2223   2.439       .  S
O1895      C1918   1.291       .  A
O1896     Zr1911   2.439       .  S
O1896      C1919   1.291       .  A
O1897     Zr1910   2.439       .  S
O1897      C1920   1.291       .  A
O1898     Zr1912   2.439   1_556  S
O1898      C1921   1.291       .  A
O1899      C1922   1.291       .  A
O1900      C1921   1.291       .  A
O1901      C1922   1.291       .  A
O1902     Zr1908   2.439       .  S
O1902      C1917   1.291       .  A
O1903     Zr1909   2.439       .  S
O1903      C1920   1.291       .  A
O1904      C1919   1.291       .  A
O1905      C1918   1.291       .  A
O1906     Zr2224   2.439       .  S
O1906      C1915   1.291       .  A
O1907     Zr1912   2.439       .  S
O1907      C1916   1.291       .  A
Zr1910     O2206   2.439   1_554  S
Zr1910     O2201   2.342   1_554  S
Zr1911     O2207   2.439   1_554  S
Zr1911     O2194   2.341   1_554  S
Zr1912     O2218   2.439   1_554  S
Zr1912     O2226   2.341   1_554  S
Zr1912     O1924   2.342       .  S
O1914     Zr2224   2.341       .  S
C1915      C2173   1.435       .  S
C1916      C2180   1.435       .  S
C1917      C2157   1.435       .  S
C1918      C2153   1.434       .  S
C1919      C2165   1.434       .  S
C1920      C2164   1.434       .  S
C1921      C2148   1.435       .  S
C1922      C2140   1.435       .  S
H1923      O1924   0.965       .  S
H1925      O1926   0.966       .  S
O1927     Zr1963   2.439       .  S
O1927      C1938   1.291       .  A
O1928     Zr1962   2.439       .  S
O1928      C1939   1.291       .  A
O1929     Zr1935   2.439       .  S
O1929      C1940   1.291       .  A
O1930      C1941   1.291       .  A
O1931     Zr1965   2.439       .  S
O1931      C1941   1.291       .  A
O1932     Zr1964   2.439       .  S
O1932      C1940   1.291       .  A
O1933     Zr1935   2.439       .  S
O1933      C1939   1.291       .  A
O1934     Zr1935   2.439       .  S
O1934      C1938   1.291       .  A
Zr1935     O1937   2.341       .  S
Zr1935     O1943   2.342       .  S
O1936     Zr1965   2.341       .  S
O1937     Zr1963   2.341       .  S
O1937     Zr1964   2.341       .  S
C1938      C2184   1.435       .  S
C1939      C2172   1.435       .  S
C1940      C2116   1.435       .  S
C1941      C2108   1.435       .  S
H1942      O1943   0.965       .  S
O1943     Zr1962   2.342       .  S
O1943     Zr1964   2.342       .  S
H1944      O1945   0.966       .  S
O1945     Zr1965   2.342       .  S
O1946     Zr1962   2.439       .  S
O1946      C1969   1.291       .  A
O1947     Zr1963   2.439       .  S
O1947      C1970   1.291       .  A
O1948     Zr1964   2.439       .  S
O1948      C1971   1.291       .  A
O1949     Zr1965   2.439       .  S
O1949      C1972   1.291       .  A
O1950     Zr1965   2.439       .  S
O1950      C1973   1.291       .  A
O1951     Zr1964   2.439       .  S
O1951      C1974   1.291       .  A
O1952     Zr1966   2.439       .  S
O1952      C1975   1.291       .  A
O1953      C1976   1.291       .  A
O1954     Zr1964   2.439       .  S
O1954      C1975   1.291       .  A
O1955     Zr1965   2.439       .  S
O1955      C1976   1.291       .  A
O1956     Zr1962   2.439       .  S
O1956      C1971   1.291       .  A
O1957     Zr1963   2.439       .  S
O1957      C1974   1.291       .  A
O1958      C1973   1.291       .  A
O1959      C1972   1.291       .  A
O1960     Zr1966   2.439       .  S
O1960      C1969   1.291       .  A
O1961     Zr1966   2.439       .  S
O1961      C1970   1.291       .  A
Zr1962     O1968   2.341       .  S
Zr1963     O1978   2.342       .  S
Zr1964     O1968   2.341       .  S
Zr1964     O1978   2.342       .  S
Zr1965     O1967   2.341       .  S
Zr1965     O1980   2.342       .  S
Zr1966     O1968   2.341       .  S
Zr1966     O1978   2.342       .  S
C1969      C2176   1.435       .  S
C1970      C2177   1.435       .  S
C1971      C2129   1.434       .  S
C1972      C2133   1.434       .  S
C1973      C2121   1.434       .  S
C1974      C2128   1.435       .  S
C1975      C2117   1.435       .  S
C1976      C2109   1.435       .  S
H1977      O1978   0.965       .  S
H1979      O1980   0.966       .  S
O1981     Zr2017   2.439       .  S
O1981      C1992   1.291       .  A
O1982     Zr2016   2.439       .  S
O1982      C1993   1.291       .  A
O1983     Zr1989   2.439       .  S
O1983      C1994   1.291       .  A
O1984      C1995   1.291       .  A
O1985     Zr2019   2.439       .  S
O1985      C1995   1.291       .  A
O1986     Zr2018   2.439       .  S
O1986      C1994   1.291       .  A
O1987     Zr1989   2.439       .  S
O1987      C1993   1.291       .  A
O1988     Zr1989   2.439       .  S
O1988      C1992   1.291       .  A
Zr1989     O1991   2.341       .  S
Zr1989     O1997   2.342       .  S
O1990     Zr2019   2.341       .  S
O1991     Zr2017   2.341       .  S
O1991     Zr2018   2.341       .  S
C1994      C2093   1.435       .  S
C1995      C2092   1.435       .  S
H1996      O1997   0.966       .  S
O1997     Zr2016   2.342       .  S
O1997     Zr2018   2.342       .  S
H1998      O1999   0.965       .  S
O1999     Zr2019   2.342       .  S
O2000     Zr2016   2.439       .  S
O2000      C2023   1.291       .  A
O2001     Zr2017   2.439       .  S
O2001      C2024   1.291       .  A
O2002     Zr2018   2.439       .  S
O2002      C2025   1.291       .  A
O2003     Zr2019   2.439       .  S
O2003      C2026   1.291       .  A
O2004     Zr2019   2.439       .  S
O2004      C2027   1.291       .  A
O2005     Zr2018   2.439       .  S
O2005      C2028   1.291       .  A
O2006     Zr2020   2.439       .  S
O2006      C2029   1.291       .  A
O2007      C2030   1.291       .  A
O2008     Zr2018   2.439       .  S
O2008      C2029   1.291       .  A
O2009     Zr2019   2.439       .  S
O2009      C2030   1.291       .  A
O2010     Zr2016   2.439       .  S
O2010      C2025   1.291       .  A
O2011     Zr2017   2.439       .  S
O2011      C2028   1.291       .  A
O2012      C2027   1.291       .  A
O2013      C2026   1.291       .  A
O2014     Zr2020   2.439       .  S
O2014      C2023   1.291       .  A
O2015     Zr2020   2.439       .  S
O2015      C2024   1.291       .  A
Zr2016     O2022   2.341       .  S
Zr2017     O2032   2.342       .  S
Zr2018     O2022   2.341       .  S
Zr2018     O2032   2.342       .  S
Zr2019     O2021   2.341       .  S
Zr2019     O2034   2.342       .  S
Zr2020     O2022   2.341       .  S
Zr2020     O2032   2.342       .  S
C2025      C2120   1.435       .  S
C2026      C2113   1.435       .  S
C2027      C2105   1.435       .  S
C2028      C2112   1.435       .  S
C2029      C2100   1.435       .  S
C2030      C2101   1.435       .  S
H2031      O2032   0.965       .  S
H2033      O2034   0.966       .  S
O2035     Zr2071   2.439       .  S
O2035      C2046   1.291       .  A
O2036     Zr2070   2.439       .  S
O2036      C2047   1.291       .  A
O2037     Zr2355   2.439       .  S
O2037      C2048   1.291       .  A
O2038     Zr2043   2.439       .  S
O2038      C2049   1.291       .  A
O2039     Zr2073   2.439       .  S
O2039      C2049   1.291       .  A
O2040     Zr2072   2.439       .  S
O2040      C2048   1.291       .  A
O2041     Zr2043   2.439       .  S
O2041      C2047   1.291       .  A
O2042     Zr2043   2.439       .  S
O2042      C2046   1.291       .  A
Zr2043     O2349   2.439       .  S
Zr2043     O2044   2.341       .  S
Zr2043     O2357   2.341       .  S
Zr2043     O2053   2.342       .  S
Zr2043     O2363   2.342       .  S
O2044     Zr2070   2.341       .  S
O2044     Zr2073   2.341       .  S
O2045     Zr2355   2.341       .  S
O2045     Zr2383   2.341       .  S
O2045     Zr2072   2.341       .  S
C2046      C2461   1.435       .  S
C2047      C2457   1.435       .  S
C2048      C2125   1.434       .  S
C2049      C2132   1.434       .  S
H2050      O2051   0.966       .  S
O2051     Zr2355   2.342       .  S
O2051     Zr2382   2.342       .  S
O2051     Zr2072   2.342       .  S
H2052      O2053   0.966       .  S
O2053     Zr2071   2.342       .  S
O2053     Zr2073   2.342       .  S
O2054     Zr2070   2.439       .  S
O2054      C2077   1.291       .  A
O2055     Zr2071   2.439       .  S
O2055      C2078   1.291       .  A
O2056     Zr2072   2.439       .  S
O2056      C2079   1.291       .  A
O2057     Zr2073   2.439       .  S
O2057      C2080   1.291       .  A
O2058     Zr2073   2.439       .  S
O2058      C2081   1.291       .  A
O2059     Zr2072   2.439       .  S
O2059      C2082   1.291       .  A
O2060     Zr2386   2.439       .  S
O2060      C2083   1.291       .  A
O2061     Zr2074   2.439       .  S
O2061      C2084   1.291       .  A
O2062     Zr2072   2.439       .  S
O2062      C2083   1.291       .  A
O2063     Zr2073   2.439       .  S
O2063      C2084   1.291       .  A
O2064     Zr2382   2.439       .  S
O2064      C2079   1.291       .  A
O2065     Zr2383   2.439       .  S
O2065      C2082   1.291       .  A
O2066     Zr2071   2.439       .  S
O2066      C2081   1.291       .  A
O2067     Zr2070   2.439       .  S
O2067      C2080   1.291       .  A
O2068     Zr2074   2.439       .  S
O2068      C2077   1.291       .  A
O2069     Zr2074   2.439       .  S
O2069      C2078   1.291       .  A
Zr2070     O2376   2.439       .  S
Zr2070     O2363   2.342       .  S
Zr2070     O2388   2.341       .  S
Zr2070     O2088   2.342       .  S
Zr2071     O2377   2.439       .  S
Zr2071     O2357   2.341       .  S
Zr2071     O2075   2.341       .  S
Zr2071     O2398   2.342       .  S
Zr2072     O2076   2.341       .  S
Zr2072     O2086   2.342       .  S
Zr2073     O2075   2.341       .  S
Zr2073     O2088   2.342       .  S
Zr2074     O2372   2.439       .  S
Zr2074     O2075   2.341       .  S
Zr2074     O2388   2.341       .  S
Zr2074     O2088   2.342       .  S
Zr2074     O2398   2.342       .  S
O2076     Zr2382   2.341       .  S
O2076     Zr2386   2.341       .  S
C2077      C2449   1.435       .  S
C2078      C2453   1.435       .  S
C2079      C2096   1.435       .  S
C2080      C2097   1.435       .  S
C2081      C2104   1.435       .  S
C2082      C2089   1.435       .  S
C2083      C2124   1.434       .  S
C2084      C2136   1.435       .  S
H2085      O2086   0.965       .  S
O2086     Zr2383   2.342       .  S
O2086     Zr2386   2.342       .  S
H2087      O2088   0.965       .  S
C2089      C2090   1.205       .  T
C2090      C2091   1.412       .  S
C2091      C2092   1.205       .  T
C2093      C2094   1.205       .  T
C2094      C2095   1.411       .  S
C2095      C2096   1.205       .  T
C2097      C2098   1.205       .  T
C2098      C2099   1.412       .  S
C2099      C2100   1.205       .  T
C2101      C2102   1.205       .  T
C2102      C2103   1.411       .  S
C2103      C2104   1.205       .  T
C2105      C2106   1.205       .  T
C2106      C2107   1.411       .  S
C2107      C2108   1.205       .  T
C2109      C2110   1.205       .  T
C2110      C2111   1.411       .  S
C2111      C2112   1.205       .  T
C2113      C2114   1.205       .  T
C2114      C2115   1.411       .  S
C2115      C2116   1.205       .  T
C2117      C2118   1.205       .  T
C2118      C2119   1.411       .  S
C2119      C2120   1.205       .  T
C2121      C2122   1.205       .  T
C2122      C2123   1.411       .  S
C2123      C2124   1.205       .  T
C2125      C2126   1.205       .  T
C2126      C2127   1.411       .  S
C2127      C2128   1.205       .  T
C2129      C2130   1.205       .  T
C2130      C2131   1.411       .  S
C2131      C2132   1.205       .  T
C2133      C2134   1.205       .  T
C2134      C2135   1.411       .  S
C2135      C2136   1.205       .  T
C2137      C2389   1.435       .  S
C2137      C2450   1.205       .  T
C2138      C2449   1.205       .  T
C2138      C2139   1.411       .  S
C2139      C2452   1.205       .  T
C2140      C2451   1.205       .  T
C2141      C2390   1.435       .  S
C2141      C2142   1.205       .  T
C2142      C2143   1.411       .  S
C2143      C2144   1.205       .  T
C2145      C2359   1.435       .  S
C2145      C2458   1.205       .  T
C2146      C2457   1.205       .  T
C2146      C2147   1.411       .  S
C2147      C2460   1.205       .  T
C2148      C2459   1.205       .  T
C2149      C2358   1.435       .  S
C2149      C2150   1.205       .  T
C2150      C2151   1.411       .  S
C2151      C2152   1.205       .  T
C2154      C2155   1.411       .  S
C2157      C2158   1.205       .  T
C2158      C2159   1.411       .  S
C2159      C2160   1.205       .  T
C2161      C2162   1.205       .  T
C2162      C2163   1.411       .  S
C2163      C2164   1.205       .  T
C2165      C2166   1.205       .  T
C2166      C2167   1.411       .  S
C2167      C2168   1.205       .  T
C2169      C2170   1.205       .  T
C2173      C2174   1.205       .  T
C2177      C2178   1.205       .  T
C2178      C2179   1.412       .  S
C2179      C2180   1.205       .  T
C2181      C2182   1.205       .  T
O2185     Zr2221   2.439       .  S
O2185      C2196   1.291       .  A
O2186     Zr2220   2.439       .  S
O2186      C2197   1.291       .  A
O2187     Zr2193   2.439       .  S
O2187      C2198   1.291       .  A
O2188      C2199   1.291       .  A
O2189     Zr2223   2.439       .  S
O2189      C2199   1.291       .  A
O2190     Zr2222   2.439       .  S
O2190      C2198   1.291       .  A
O2191      C2197   1.291       .  A
O2192     Zr2193   2.439       .  S
O2192      C2196   1.291       .  A
Zr2193     O2195   2.341       .  S
O2195     Zr2221   2.341       .  S
O2195     Zr2222   2.341       .  S
C2196      C2493   1.435       .  S
C2197      C2481   1.435       .  S
C2198      C2464   1.435       .  S
C2199      C2456   1.435       .  S
H2200      O2201   0.965       .  S
O2201     Zr2220   2.342       .  S
H2202      O2203   0.966       .  S
O2203     Zr2223   2.342       .  S
O2204      C2227   1.291       .  A
O2205      C2228   1.291       .  A
O2206      C2229   1.291       .  A
O2207      C2230   1.291       .  A
O2208     Zr2223   2.439       .  S
O2208      C2231   1.291       .  A
O2209     Zr2222   2.439       .  S
O2209      C2232   1.291       .  A
O2210     Zr2224   2.439       .  S
O2210      C2233   1.291       .  A
O2211      C2234   1.291       .  A
O2212      C2233   1.291       .  A
O2213      C2234   1.291       .  A
O2214     Zr2220   2.439       .  S
O2214      C2229   1.291       .  A
O2215     Zr2221   2.439       .  S
O2215      C2232   1.291       .  A
O2216      C2231   1.291       .  A
O2217      C2230   1.291       .  A
O2218      C2227   1.291       .  A
O2219     Zr2224   2.439       .  S
O2219      C2228   1.291       .  A
Zr2224     O2236   2.342       .  S
C2227      C2485   1.435       .  S
C2228      C2492   1.435       .  S
C2229      C2469   1.435       .  S
C2230      C2465   1.434       .  S
C2231      C2477   1.434       .  S
C2232      C2476   1.434       .  S
C2233      C2460   1.435       .  S
C2234      C2452   1.435       .  S
H2235      O2236   0.965       .  S
H2237      O2238   0.966       .  S
O2239     Zr2275   2.439       .  S
O2239      C2250   1.291       .  A
O2240     Zr2274   2.439       .  S
O2240      C2251   1.291       .  A
O2241     Zr2247   2.439       .  S
O2241      C2252   1.291       .  A
O2242      C2253   1.291       .  A
O2243     Zr2277   2.439       .  S
O2243      C2253   1.291       .  A
O2244     Zr2276   2.439       .  S
O2244      C2252   1.291       .  A
O2245     Zr2247   2.439       .  S
O2245      C2251   1.291       .  A
O2246     Zr2247   2.439       .  S
O2246      C2250   1.291       .  A
Zr2247     O2249   2.341       .  S
Zr2247     O2255   2.342       .  S
O2248     Zr2277   2.341       .  S
O2249     Zr2275   2.341       .  S
O2249     Zr2276   2.341       .  S
C2250      C2496   1.435       .  S
C2251      C2484   1.435       .  S
C2252      C2428   1.435       .  S
C2253      C2420   1.435       .  S
H2254      O2255   0.965       .  S
O2255     Zr2274   2.342       .  S
O2255     Zr2276   2.342       .  S
H2256      O2257   0.966       .  S
O2257     Zr2277   2.342       .  S
O2258     Zr2274   2.439       .  S
O2258      C2281   1.291       .  A
O2259     Zr2275   2.439       .  S
O2259      C2282   1.291       .  A
O2260     Zr2276   2.439       .  S
O2260      C2283   1.291       .  A
O2261     Zr2277   2.439       .  S
O2261      C2284   1.291       .  A
O2262     Zr2277   2.439       .  S
O2262      C2285   1.291       .  A
O2263     Zr2276   2.439       .  S
O2263      C2286   1.291       .  A
O2264     Zr2278   2.439       .  S
O2264      C2287   1.291       .  A
O2265      C2288   1.291       .  A
O2266     Zr2276   2.439       .  S
O2266      C2287   1.291       .  A
O2267     Zr2277   2.439       .  S
O2267      C2288   1.291       .  A
O2268     Zr2274   2.439       .  S
O2268      C2283   1.291       .  A
O2269     Zr2275   2.439       .  S
O2269      C2286   1.291       .  A
O2270      C2285   1.291       .  A
O2271      C2284   1.291       .  A
O2272     Zr2278   2.439       .  S
O2272      C2281   1.291       .  A
O2273     Zr2278   2.439       .  S
O2273      C2282   1.291       .  A
Zr2274     O2280   2.341       .  S
Zr2275     O2290   2.342       .  S
Zr2276     O2280   2.341       .  S
Zr2276     O2290   2.342       .  S
Zr2277     O2279   2.341       .  S
Zr2277     O2292   2.342       .  S
Zr2278     O2280   2.341       .  S
Zr2278     O2290   2.342       .  S
C2281      C2488   1.435       .  S
C2282      C2489   1.435       .  S
C2283      C2441   1.434       .  S
C2284      C2445   1.434       .  S
C2285      C2433   1.434       .  S
C2286      C2440   1.435       .  S
C2287      C2429   1.435       .  S
C2288      C2421   1.435       .  S
H2289      O2290   0.965       .  S
H2291      O2292   0.966       .  S
O2293     Zr2329   2.439       .  S
O2293      C2304   1.291       .  A
O2294     Zr2328   2.439       .  S
O2294      C2305   1.291       .  A
O2295     Zr2301   2.439       .  S
O2295      C2306   1.291       .  A
O2296      C2307   1.291       .  A
O2297     Zr2331   2.439       .  S
O2297      C2307   1.291       .  A
O2298     Zr2330   2.439       .  S
O2298      C2306   1.291       .  A
O2299     Zr2301   2.439       .  S
O2299      C2305   1.291       .  A
O2300     Zr2301   2.439       .  S
O2300      C2304   1.291       .  A
Zr2301     O2303   2.341       .  S
Zr2301     O2309   2.342       .  S
O2302     Zr2331   2.341       .  S
O2303     Zr2329   2.341       .  S
O2303     Zr2330   2.341       .  S
C2306      C2405   1.435       .  S
C2307      C2404   1.435       .  S
H2308      O2309   0.966       .  S
O2309     Zr2328   2.342       .  S
O2309     Zr2330   2.342       .  S
H2310      O2311   0.965       .  S
O2311     Zr2331   2.342       .  S
O2312     Zr2328   2.439       .  S
O2312      C2335   1.291       .  A
O2313     Zr2329   2.439       .  S
O2313      C2336   1.291       .  A
O2314     Zr2330   2.439       .  S
O2314      C2337   1.291       .  A
O2315     Zr2331   2.439       .  S
O2315      C2338   1.291       .  A
O2316     Zr2331   2.439       .  S
O2316      C2339   1.291       .  A
O2317     Zr2330   2.439       .  S
O2317      C2340   1.291       .  A
O2318     Zr2332   2.439       .  S
O2318      C2341   1.291       .  A
O2319      C2342   1.291       .  A
O2320     Zr2330   2.439       .  S
O2320      C2341   1.291       .  A
O2321     Zr2331   2.439       .  S
O2321      C2342   1.291       .  A
O2322     Zr2328   2.439       .  S
O2322      C2337   1.291       .  A
O2323     Zr2329   2.439       .  S
O2323      C2340   1.291       .  A
O2324      C2339   1.291       .  A
O2325      C2338   1.291       .  A
O2326     Zr2332   2.439       .  S
O2326      C2335   1.291       .  A
O2327     Zr2332   2.439       .  S
O2327      C2336   1.291       .  A
Zr2328     O2334   2.341       .  S
Zr2329     O2344   2.342       .  S
Zr2330     O2334   2.341       .  S
Zr2330     O2344   2.342       .  S
Zr2331     O2333   2.341       .  S
Zr2331     O2346   2.342       .  S
Zr2332     O2334   2.341       .  S
Zr2332     O2344   2.342       .  S
C2337      C2432   1.435       .  S
C2338      C2425   1.435       .  S
C2339      C2417   1.435       .  S
C2340      C2424   1.435       .  S
C2341      C2412   1.435       .  S
C2342      C2413   1.435       .  S
H2343      O2344   0.965       .  S
H2345      O2346   0.966       .  S
O2347     Zr2383   2.439       .  S
O2347      C2358   1.291       .  A
O2348     Zr2382   2.439   1_556  S
O2348      C2359   1.291       .  A
O2349      C2360   1.291       .  A
O2350     Zr2355   2.439   1_556  S
O2350      C2361   1.291       .  A
O2351     Zr2385   2.439       .  S
O2351      C2361   1.291       .  A
O2352     Zr2384   2.439       .  S
O2352      C2360   1.291       .  A
O2353     Zr2355   2.439   1_556  S
O2353      C2359   1.291       .  A
O2354     Zr2355   2.439       .  S
O2354      C2358   1.291       .  A
Zr2355     O2356   2.341   1_554  S
Zr2355     O2365   2.342   1_554  S
O2356     Zr2382   2.341   1_556  S
O2356     Zr2385   2.341       .  S
O2357     Zr2384   2.341       .  S
C2360      C2437   1.434       .  S
C2361      C2444   1.434       .  S
H2362      O2363   0.966       .  S
O2363     Zr2384   2.342       .  S
H2364      O2365   0.966       .  S
O2365     Zr2383   2.342   1_556  S
O2365     Zr2385   2.342       .  S
O2366     Zr2382   2.439       .  S
O2366      C2389   1.291       .  A
O2367     Zr2383   2.439   1_556  S
O2367      C2390   1.291       .  A
O2368     Zr2384   2.439       .  S
O2368      C2391   1.291       .  A
O2369     Zr2385   2.439       .  S
O2369      C2392   1.291       .  A
O2370     Zr2385   2.439       .  S
O2370      C2393   1.291       .  A
O2371     Zr2384   2.439       .  S
O2371      C2394   1.291       .  A
O2372      C2395   1.291       .  A
O2373     Zr2386   2.439   1_556  S
O2373      C2396   1.291       .  A
O2374     Zr2384   2.439       .  S
O2374      C2395   1.291       .  A
O2375     Zr2385   2.439       .  S
O2375      C2396   1.291       .  A
O2376      C2391   1.291       .  A
O2377      C2394   1.291       .  A
O2378     Zr2383   2.439   1_556  S
O2378      C2393   1.291       .  A
O2379     Zr2382   2.439   1_556  S
O2379      C2392   1.291       .  A
O2380     Zr2386   2.439       .  S
O2380      C2389   1.291       .  A
O2381     Zr2386   2.439   1_556  S
O2381      C2390   1.291       .  A
Zr2382     O2400   2.342   1_554  S
Zr2383     O2387   2.341   1_554  S
Zr2384     O2388   2.341       .  S
Zr2384     O2398   2.342       .  S
Zr2385     O2387   2.341       .  S
Zr2385     O2400   2.342       .  S
Zr2386     O2387   2.341   1_554  S
Zr2386     O2400   2.342   1_554  S
C2391      C2408   1.435       .  S
C2392      C2409   1.435       .  S
C2393      C2416   1.435       .  S
C2394      C2401   1.435       .  S
C2395      C2436   1.434       .  S
C2396      C2448   1.435       .  S
H2397      O2398   0.965       .  S
H2399      O2400   0.965       .  S
C2401      C2402   1.205       .  T
C2402      C2403   1.412       .  S
C2403      C2404   1.205       .  T
C2405      C2406   1.205       .  T
C2406      C2407   1.411       .  S
C2407      C2408   1.205       .  T
C2409      C2410   1.205       .  T
C2410      C2411   1.412       .  S
C2411      C2412   1.205       .  T
C2413      C2414   1.205       .  T
C2414      C2415   1.411       .  S
C2415      C2416   1.205       .  T
C2417      C2418   1.205       .  T
C2418      C2419   1.411       .  S
C2419      C2420   1.205       .  T
C2421      C2422   1.205       .  T
C2422      C2423   1.411       .  S
C2423      C2424   1.205       .  T
C2425      C2426   1.205       .  T
C2426      C2427   1.411       .  S
C2427      C2428   1.205       .  T
C2429      C2430   1.205       .  T
C2430      C2431   1.411       .  S
C2431      C2432   1.205       .  T
C2433      C2434   1.205       .  T
C2434      C2435   1.411       .  S
C2435      C2436   1.205       .  T
C2437      C2438   1.205       .  T
C2438      C2439   1.411       .  S
C2439      C2440   1.205       .  T
C2441      C2442   1.205       .  T
C2442      C2443   1.411       .  S
C2443      C2444   1.205       .  T
C2445      C2446   1.205       .  T
C2446      C2447   1.411       .  S
C2447      C2448   1.205       .  T
C2450      C2451   1.411       .  S
C2453      C2454   1.205       .  T
C2454      C2455   1.411       .  S
C2455      C2456   1.205       .  T
C2458      C2459   1.411       .  S
C2461      C2462   1.205       .  T
C2462      C2463   1.411       .  S
C2463      C2464   1.205       .  T
C2466      C2467   1.411       .  S
C2469      C2470   1.205       .  T
C2470      C2471   1.411       .  S
C2471      C2472   1.205       .  T
C2473      C2474   1.205       .  T
C2474      C2475   1.411       .  S
C2475      C2476   1.205       .  T
C2477      C2478   1.205       .  T
C2478      C2479   1.411       .  S
C2479      C2480   1.205       .  T
C2481      C2482   1.205       .  T
C2485      C2486   1.205       .  T
C2489      C2490   1.205       .  T
C2490      C2491   1.412       .  S
C2491      C2492   1.205       .  T
C2493      C2494   1.205       .  T
