geometry optimzed in LAMMPS
_audit_creation_date              2020-11-30 
_audit_creation_method            'lammps2cif' 
_symmetry_space_group_name_H-M    'P1' 
_symmetry_Int_Tables_number       1 
_symmetry_cell_setting            triclinic 
loop_ 
_symmetry_equiv_pos_as_xyz 
  x,y,z 
_cell_length_a                    72.74612296 
_cell_length_b                    73.94137715370364 
_cell_length_c                    73.46441267031156 
_cell_angle_alpha                 90.05354766619058 
_cell_angle_beta                  90.08579525365091 
_cell_angle_gamma                 89.81792821716259 
loop_ 
_atom_site_label 
_atom_site_type_symbol 
_atom_site_fract_x 
_atom_site_fract_y 
_atom_site_fract_z 
_atom_site_charge 
In1        In  0.74733955  0.87168804  0.15263991     1.36900
C2          C  0.71591701  0.85615532  0.14137413     0.77300
O3          O  0.75558221  0.84414958  0.14211224    -0.61100
O4          O  0.77277418  0.85756351  0.16110726    -0.52100
C5          C  0.76199594  0.90180564  0.13787890     0.70000
O6          O  0.76667578  0.88612292  0.13321889    -0.46900
C7          C  0.74533212  0.87637334  0.18860146     0.74700
O8          O  0.72877939  0.86012081  0.13055102    -0.58800
O9          O  0.75941479  0.87017349  0.18080624    -0.48900
O10         O  0.71843653  0.86173256  0.15737869    -0.55200
C11         C  0.77009991  0.84375222  0.15146067     0.84800
O12         O  0.74809974  0.90210869  0.14807815    -0.57100
O13         O  0.73235539  0.88058269  0.17794560    -0.60400
In14       In  0.75085680  0.87565679  0.33289216     1.36900
C15         C  0.78316265  0.86342716  0.34573079     0.77300
O16         O  0.72591422  0.86184825  0.34425448    -0.61100
O17         O  0.74308078  0.84700784  0.32637596    -0.52100
C18         C  0.73430569  0.90566542  0.34604147     0.70000
O19         O  0.74369069  0.89536388  0.35615311    -0.46900
C20         C  0.75382618  0.87956369  0.29688028     0.74700
O21         O  0.78195845  0.87594150  0.33411594    -0.58800
O22         O  0.73958651  0.87359924  0.30455893    -0.20100
O23         O  0.76794343  0.85898639  0.35253245    -0.55200
C24         C  0.72880582  0.84714203  0.33604888     0.84800
O25         O  0.73512578  0.90151829  0.32949781    -0.57100
O26         O  0.76656866  0.88395633  0.30771512    -0.60400
In27       In  0.62796197  0.00238292  0.37181395     1.36900
C28         C  0.63412320  0.02549726  0.34414502     0.77300
O29         O  0.61516143  0.02477427  0.38900451    -0.61100
O30         O  0.64041847  0.01362138  0.39771388    -0.52100
C31         C  0.60019723  0.97867881  0.37659203     0.70000
O32         O  0.59999627  0.99061838  0.36430978    -0.46900
C33         C  0.65434111  0.97840086  0.36331618     0.74700
O34         O  0.61858935  0.01824759  0.34651833    -0.58800
O35         O  0.65375710  0.98621166  0.37859852    -0.48900
O36         O  0.64581688  0.02125725  0.35608840    -0.55200
C37         C  0.62793275  0.02511174  0.40065520     0.84800
O38         O  0.61410101  0.97950586  0.38680706    -0.57100
O39         O  0.64138460  0.98273586  0.35274329    -0.60400
In40       In  0.86824072  0.99968855  0.12668880     1.36900
C41         C  0.86619848  0.02052316  0.15692002     0.77300
O42         O  0.87997017  0.02022950  0.10655480    -0.61100
O43         O  0.85154410  0.01519257  0.10560520    -0.52100
C44         C  0.89715767  0.97673230  0.13011759     0.70000
O45         O  0.88683678  0.98113110  0.14317273    -0.46900
C46         C  0.84144501  0.97483882  0.12265778     0.74700
O47         O  0.85560756  0.00751362  0.15353186    -0.58800
O48         O  0.85637423  0.97427346  0.11392819    -0.48900
O49         O  0.87841760  0.02277166  0.14496451    -0.55200
C50         C  0.86477825  0.02411394  0.09923082     0.84800
O51         O  0.89329967  0.98480823  0.11547308    -0.57100
O52         O  0.83990948  0.98854770  0.13277913    -0.60400
In53       In  0.66075958  0.12543470  0.24432980     1.36900
C54         C  0.64827971  0.13587308  0.21170673     0.77300
O55         O  0.64655494  0.14244053  0.26551914    -0.61100
O56         O  0.66897720  0.15382273  0.25124971    -0.52100
C57         C  0.64854057  0.09623557  0.26277700     0.70000
O58         O  0.63885020  0.10374580  0.25064682    -0.46900
C59         C  0.69682410  0.12012582  0.24104171     0.74700
O60         O  0.64055209  0.14038123  0.22637332    -0.58800
O61         O  0.68962692  0.12740066  0.25486163    -0.48900
O62         O  0.66070528  0.12408948  0.21363222    -0.55200
C63         C  0.65689001  0.15591457  0.26332236     0.84800
O64         O  0.66419274  0.10308594  0.26442516    -0.57100
O65         O  0.68552127  0.11534269  0.22888392    -0.60400
In66       In  0.84167117  0.12623379  0.24925937     1.36900
C67         C  0.85408195  0.14003899  0.28115381     0.77300
O68         O  0.84965720  0.13952321  0.22290996    -0.61100
O69         O  0.83390356  0.15467936  0.24176343    -0.52100
C70         C  0.85732079  0.09691160  0.23367276     0.70000
O71         O  0.84150127  0.09684094  0.24051928    -0.46900
C72         C  0.80579018  0.11914252  0.24997820     0.74700
O73         O  0.86291098  0.14111312  0.26646750    -0.58800
O74         O  0.81336385  0.12751641  0.23705777    -0.48900
O75         O  0.84020625  0.13000361  0.28002403    -0.55200
C76         C  0.84180656  0.15429865  0.22651068     0.84800
O77         O  0.86614905  0.11117597  0.23698981    -0.57100
O78         O  0.81668474  0.11407775  0.26240824    -0.60400
In79       In  0.86693761  0.75015603  0.34180423     1.36900
C80         C  0.85361656  0.78220502  0.35381513     0.77300
O81         O  0.88395863  0.75916679  0.31780549    -0.61100
O82         O  0.85891535  0.74513449  0.31303194    -0.52100
C83         C  0.89681463  0.73140407  0.35262155     0.70000
O84         O  0.89174779  0.74567354  0.36078448    -0.46900
C85         C  0.83889940  0.72802364  0.34768800     0.74700
O86         O  0.86359087  0.78084969  0.33987407    -0.58800
O87         O  0.83965939  0.73867690  0.33433703    -0.48900
O88         O  0.85253210  0.76772449  0.36274144    -0.55200
C89         C  0.87301786  0.75238554  0.30626069     0.84800
O90         O  0.88691861  0.72736289  0.33921592    -0.57100
O91         O  0.85246594  0.72889667  0.35835687    -0.60400
In92       In  0.87623736  0.74721225  0.16169962     1.36900
C93         C  0.86490044  0.71510749  0.14901519     0.77300
O94         O  0.88859818  0.74923884  0.18996563    -0.61100
O95         O  0.86105881  0.74053782  0.18728314    -0.52100
C96         C  0.90614242  0.76164528  0.14599133     0.70000
O97         O  0.89006469  0.76437131  0.14022028    -0.46900
C98         C  0.85193499  0.77365516  0.16089914     0.74700
O99         O  0.86047347  0.72989061  0.14168142    -0.58800
O100        O  0.86695875  0.77488090  0.16933257    -0.48900
O101        O  0.87716738  0.71662020  0.16110208    -0.55200
C102        C  0.87402042  0.74450989  0.19789984     0.84800
O103        O  0.90710514  0.74969271  0.15822476    -0.57100
O104        O  0.84959472  0.75900871  0.15244109    -0.60400
In105      In  0.99703694  0.62645441  0.37030277     1.36900
C106        C  0.02171668  0.63492179  0.34462113     0.77300
O107        O  0.97803272  0.64227214  0.35232038    -0.61100
O108        O  0.97991868  0.65084954  0.37971524    -0.52100
C109        C  0.97429070  0.59755815  0.36941184     0.70000
O110        O  0.98577825  0.60113936  0.35712205    -0.46900
C111        C  0.02143951  0.62242127  0.39783994     0.74700
O112        O  0.01471044  0.61936308  0.34579880    -0.58800
O113        O  0.00897035  0.63434835  0.39805771    -0.48900
O114        O  0.01603738  0.64591295  0.35650500    -0.55200
C115        C  0.97292538  0.65354911  0.36417243     0.84800
O116        O  0.97472318  0.60851886  0.38259225    -0.57100
O117        O  0.02066065  0.61216984  0.38416289    -0.60400
In118      In  0.99794403  0.87053702  0.12043261     1.36900
C119        C  0.02167711  0.87310755  0.14886793     0.77300
O120        O  0.99002760  0.84190567  0.12890881    -0.61100
O121        O  0.97251430  0.85570743  0.11068363    -0.52100
C122        C  0.97454414  0.89918291  0.12057693     0.70000
O123        O  0.97887868  0.89071288  0.13485910    -0.46900
C124        C  0.02071034  0.86776449  0.09141472     0.74700
O125        O  0.00639194  0.86520020  0.14989200    -0.58800
O126        O  0.01333551  0.85423722  0.09890236    -0.48900
O127        O  0.02451336  0.88019246  0.13355643    -0.55200
C128        C  0.97522006  0.84159179  0.11994578     0.84800
O129        O  0.98235587  0.89316674  0.10653515    -0.57100
O130        O  0.01619175  0.88260979  0.09858546    -0.60400
In131      In  0.11986998  0.83936113  0.24826981     1.36900
C132        C  0.12895541  0.84873478  0.28256549     0.77300
O133        O  0.10810720  0.81147865  0.24311792    -0.61100
O134        O  0.13472107  0.81356220  0.25459340    -0.52100
C135        C  0.09008321  0.85435327  0.23222352     0.70000
O136        O  0.08892894  0.84320616  0.24516680    -0.46900
C137        C  0.14628469  0.84394403  0.22385287     0.74700
O138        O  0.11674171  0.83718302  0.27901608    -0.58800
O139        O  0.13421083  0.83183402  0.22249418    -0.48900
O140        O  0.13438781  0.85728259  0.26877533    -0.55200
C141        C  0.12217244  0.80328399  0.24893907     0.84800
O142        O  0.10623693  0.85950915  0.22922607    -0.57100
O143        O  0.14486088  0.85378883  0.23783161    -0.60400
In144      In  0.12513031  0.66050082  0.24663282     1.36900
C145        C  0.13949169  0.64505092  0.21658325     0.77300
O146        O  0.10924635  0.68446887  0.23567106    -0.61100
O147        O  0.13545757  0.68871294  0.24776130    -0.52100
C148        C  0.09494580  0.65041973  0.26482265     0.70000
O149        O  0.10184319  0.64063051  0.25242390    -0.46900
C150        C  0.14995996  0.65635392  0.27291212     0.74700
O151        O  0.12718257  0.65706082  0.21568868    -0.58800
O152        O  0.15134336  0.66824220  0.26069954    -0.48900
O153        O  0.14255654  0.63963117  0.23250976    -0.55200
C154        C  0.12134356  0.69571149  0.24065063     0.84800
O155        O  0.10253325  0.66558070  0.26649960    -0.57100
O156        O  0.13603084  0.64638533  0.27145128    -0.60400
In157      In  0.50184180  0.62208923  0.13180273     1.36900
C158        C  0.47589978  0.62956069  0.15704843     0.77300
O159        O  0.52221581  0.63596315  0.15015261    -0.61100
O160        O  0.51839902  0.64699562  0.12387683    -0.52100
C161        C  0.52470537  0.59336471  0.13007026     0.70000
O162        O  0.51197318  0.59479050  0.14165357    -0.46900
C163        C  0.48010880  0.61893248  0.10229298     0.74700
O164        O  0.48017478  0.63994252  0.14415247    -0.58800
O165        O  0.49041325  0.63236694  0.10496874    -0.48900
O166        O  0.48499693  0.61498983  0.15722699    -0.55200
C167        C  0.52669943  0.64808553  0.13894503     0.84800
O168        O  0.52539024  0.60640169  0.11901913    -0.57100
O169        O  0.48147557  0.60687541  0.11434602    -0.60400
In170      In  0.36745526  0.83873818  0.24936572     1.36900
C171        C  0.35168973  0.85253750  0.21927466     0.77300
O172        O  0.37780254  0.81459912  0.23344521    -0.61100
O173        O  0.36248137  0.81038577  0.25774482    -0.52100
C174        C  0.39854033  0.84898391  0.26629717     0.70000
O175        O  0.39100732  0.83390371  0.26831841    -0.46900
C176        C  0.34089642  0.84415790  0.27319742     0.74700
O177        O  0.36484297  0.84138750  0.21854279    -0.58800
O178        O  0.34126210  0.83076853  0.26254837    -0.48900
O179        O  0.34815418  0.85793789  0.23511324    -0.55200
C180        C  0.37131404  0.80340715  0.24475402     0.84800
O181        O  0.39101330  0.85871612  0.25425077    -0.57100
O182        O  0.35428566  0.85485961  0.27166379    -0.60400
In183      In  0.37301232  0.66111430  0.25521357     1.36900
C184        C  0.36245633  0.65112482  0.28870385     0.77300
O185        O  0.38309439  0.68647419  0.26908204    -0.61100
O186        O  0.37022423  0.68872862  0.24317513    -0.52100
C187        C  0.40173211  0.64761727  0.23614286     0.70000
O188        O  0.39565840  0.66345128  0.23486615    -0.46900
C189        C  0.34217287  0.65714562  0.23624114     0.74700
O190        O  0.37585756  0.66160230  0.28603516    -0.58800
O191        O  0.34465754  0.66962190  0.24763469    -0.48900
O192        O  0.35630278  0.64396157  0.27438053    -0.55200
C193        C  0.37751351  0.69676491  0.25647688     0.84800
O194        O  0.39404256  0.63854487  0.24854486    -0.57100
O195        O  0.35540993  0.64616752  0.23485881    -0.60400
In196      In  0.49708187  0.87506665  0.37109610     1.36900
C197        C  0.47230910  0.86626291  0.34539142     0.77300
O198        O  0.51530029  0.85897793  0.35261179    -0.61100
O199        O  0.51511684  0.85143269  0.38040573    -0.52100
C200        C  0.52029894  0.90365164  0.37052984     0.70000
O201        O  0.50794982  0.90103865  0.35872508    -0.46900
C202        C  0.47325532  0.87861192  0.39926426     0.74700
O203        O  0.47788770  0.85558399  0.35755053    -0.58800
O204        O  0.48305026  0.86470402  0.39686809    -0.48900
O205        O  0.47922886  0.88188889  0.34642244    -0.55200
C206        C  0.52094082  0.84802529  0.36453838     0.84800
O207        O  0.52057343  0.89179664  0.38290965    -0.57100
O208        O  0.47645546  0.89100094  0.38793640    -0.60400
In209      In  0.62145546  0.75103979  0.33885405     1.36900
C210        C  0.63671878  0.72134836  0.35365190     0.77300
O211        O  0.62013596  0.73396307  0.31349279    -0.61100
O212        O  0.62006485  0.76251805  0.31065771    -0.52100
C213        C  0.58931898  0.76422420  0.35106342     0.70000
O214        O  0.60135935  0.75791490  0.36169834    -0.46900
C215        C  0.64678205  0.77672009  0.34218202     0.74700
O216        O  0.62289996  0.72053983  0.34322778    -0.58800
O217        O  0.64903930  0.76291292  0.33238388    -0.48900
O218        O  0.64109058  0.73722995  0.35806069    -0.55200
C219        C  0.62007222  0.74734966  0.30283252     0.84800
O220        O  0.59255542  0.76111684  0.33455045    -0.57100
O221        O  0.63160752  0.77729137  0.35037944    -0.60400
In222      In  0.62796549  0.75009120  0.15938268     1.36900
C223        C  0.63780308  0.78271642  0.14683269     0.77300
O224        O  0.61337433  0.76252379  0.18338792    -0.61100
O225        O  0.63541474  0.74409954  0.18807194    -0.52100
C226        C  0.59971131  0.72861781  0.14975951     0.70000
O227        O  0.60358570  0.74277460  0.14090918    -0.46900
C228        C  0.65849385  0.73117930  0.15524651     0.74700
O229        O  0.62589937  0.78053881  0.15906673    -0.58800
O230        O  0.65603158  0.74222187  0.16809046    -0.48900
O231        O  0.64268805  0.76822446  0.13917976    -0.55200
C232        C  0.62325888  0.75421771  0.19484901     0.84800
O233        O  0.60995786  0.72599564  0.16324598    -0.57100
O234        O  0.64552970  0.73043325  0.14379738    -0.60400
In235      In  0.75622920  0.62643940  0.15229594     1.36900
C236        C  0.78740203  0.64058346  0.13883158     0.77300
O237        O  0.73213049  0.63859454  0.13761594    -0.61100
O238        O  0.74512578  0.65394836  0.15834048    -0.52100
C239        C  0.74341137  0.59345777  0.14369410     0.70000
O240        O  0.74337023  0.60632070  0.13248840    -0.46900
C241        C  0.75455236  0.62609148  0.18846803     0.74700
O242        O  0.78736126  0.62994090  0.15220340    -0.58800
O243        O  0.74029969  0.62653299  0.17863207    -0.48900
O244        O  0.77222994  0.64135969  0.13065512    -0.55200
C245        C  0.73256517  0.65313744  0.14655087     0.84800
O246        O  0.75263571  0.59663376  0.15780232    -0.57100
O247        O  0.76949521  0.62593677  0.17972692    -0.60400
In248      In  0.73903905  0.62759866  0.33183232     1.36900
C249        C  0.70671563  0.64011291  0.34480119     0.77300
O250        O  0.75841413  0.64472643  0.34810443    -0.61100
O251        O  0.74721915  0.65542858  0.32360619    -0.52100
C252        C  0.75929116  0.59887628  0.34343385     0.70000
O253        O  0.74292532  0.60132419  0.34878104    -0.46900
C254        C  0.73780292  0.62280571  0.29576322     0.74700
O255        O  0.70784048  0.62946989  0.33139682    -0.58800
O256        O  0.74920706  0.63279622  0.30377126    -0.48900
O257        O  0.72178840  0.64242013  0.35293266    -0.55200
C258        C  0.75793299  0.65769348  0.33692320     0.84800
O259        O  0.76462672  0.61079399  0.33255666    -0.57100
O260        O  0.72664768  0.61491885  0.30628187    -0.60400
In261      In  0.86594734  0.49997237  0.36563645     1.36900
C262        C  0.83967577  0.52492660  0.35808138     0.77300
O263        O  0.88104889  0.52039322  0.38328701    -0.61100
O264        O  0.89229205  0.51420377  0.35757775    -0.52100
C265        C  0.86254695  0.47605165  0.39339344     0.70000
O266        O  0.84914114  0.48467626  0.38673287    -0.46900
C267        C  0.86824917  0.47622942  0.33780453     0.74700
O268        O  0.83959374  0.51564758  0.37251668    -0.58800
O269        O  0.88181011  0.48079819  0.34740160    -0.48900
O270        O  0.85282848  0.52106989  0.34755598    -0.55200
C271        C  0.89364721  0.52345816  0.37192148     0.84800
O272        O  0.87769516  0.47995033  0.38613035    -0.57100
O273        O  0.85344207  0.48397032  0.34221118    -0.60400
In274      In  0.63593395  0.49790172  0.12371035     1.36900
C275        C  0.64326812  0.47484899  0.15119055     0.77300
O276        O  0.61741141  0.47857876  0.10828874    -0.61100
O277        O  0.64450911  0.48173265  0.09875432    -0.52100
C278        C  0.60859839  0.52265002  0.12255939     0.70000
O279        O  0.60917109  0.51025193  0.13436403    -0.46900
C280        C  0.66438467  0.52097644  0.12434447     0.74700
O281        O  0.62911333  0.48478202  0.15097919    -0.58800
O282        O  0.65867807  0.51349070  0.10996805    -0.48900
O283        O  0.65366049  0.47711988  0.13767443    -0.55200
C284        C  0.62935123  0.47375466  0.09685411     0.84800
O285        O  0.62172370  0.52207874  0.11140801    -0.57100
O286        O  0.65565189  0.51650181  0.13848161    -0.60400
In287      In  0.65959642  0.37294376  0.25211738     1.36900
C288        C  0.64748631  0.36261603  0.28531063     0.77300
O289        O  0.64065909  0.36135049  0.23112257    -0.61100
O290        O  0.66312690  0.34528069  0.24039640    -0.52100
C291        C  0.65159281  0.40236495  0.23209688     0.70000
O292        O  0.64238984  0.39840366  0.24618074    -0.46900
C293        C  0.69596602  0.37514005  0.25468115     0.74700
O294        O  0.63942246  0.35848289  0.27074008    -0.58800
O295        O  0.68788792  0.36222226  0.24678673    -0.48900
O296        O  0.66030011  0.37380782  0.28308461    -0.55200
C297        C  0.64949981  0.34670388  0.22980975     0.84800
O298        O  0.66480231  0.39180974  0.22912271    -0.57100
O299        O  0.68534447  0.38669503  0.26180734    -0.60400
In300      In  0.84176965  0.37199481  0.24573446     1.36900
C301        C  0.85216674  0.36132018  0.21233692     0.77300
O302        O  0.86114942  0.35571901  0.26355726    -0.61100
O303        O  0.83252781  0.35089251  0.26546782    -0.52100
C304        C  0.85358846  0.40384422  0.25891808     0.70000
O305        O  0.84101974  0.40264929  0.24715782    -0.46900
C306        C  0.80515154  0.37083920  0.24526467     0.74700
O307        O  0.85858346  0.35462757  0.22673837    -0.58800
O308        O  0.81514147  0.36081736  0.23549301    -0.48900
O309        O  0.84241277  0.37518899  0.21492660    -0.55200
C310        C  0.84841490  0.34678228  0.27086875     0.84800
O311        O  0.86141954  0.38903817  0.26228489    -0.57100
O312        O  0.81395982  0.38138936  0.25559969    -0.60400
In313      In  0.87641843  0.16744257  0.74680620     1.36900
C314        C  0.86428465  0.15664804  0.71382720     0.77300
O315        O  0.85520793  0.15076939  0.76152445    -0.61100
O316        O  0.84996346  0.17866507  0.75672258    -0.52100
C317        C  0.90472850  0.15417168  0.76635085     0.70000
O318        O  0.88838714  0.15463202  0.77186502    -0.46900
C319        C  0.88499323  0.20225863  0.74995705     0.74700
O320        O  0.86828871  0.17276985  0.71752039    -0.58800
O321        O  0.87324394  0.19447908  0.75977615    -0.48900
O322        O  0.86862949  0.14565412  0.72624115    -0.55200
C323        C  0.84436719  0.16401675  0.76347245     0.84800
O324        O  0.90653047  0.15897149  0.74995412    -0.57100
O325        O  0.89283931  0.19204577  0.73851318    -0.60400
In326      In  0.87903657  0.34527113  0.75666569     1.36900
C327        C  0.86763168  0.35670127  0.78966429     0.77300
O328        O  0.86014497  0.36188205  0.73888899    -0.61100
O329        O  0.85931054  0.33343423  0.73614154    -0.52100
C330        C  0.90956212  0.35904819  0.74142230     0.70000
O331        O  0.91018429  0.34700697  0.75355196    -0.46900
C332        C  0.88056485  0.30937046  0.75953817     0.74700
O333        O  0.88275586  0.34861159  0.78744113    -0.58800
O334        O  0.86950535  0.31910694  0.76843546    -0.48900
O335        O  0.85988150  0.36099850  0.77498582    -0.55200
C336        C  0.85324801  0.34848670  0.73077448     0.84800
O337        O  0.89373671  0.36543830  0.73892377    -0.57100
O338        O  0.89102410  0.31805804  0.74902117    -0.60400
In339      In  0.99590300  0.37564588  0.62695141     1.36900
C340        C  0.02028720  0.34811643  0.62854149     0.77300
O341        O  0.01523156  0.39603739  0.61388229    -0.61100
O342        O  0.00882525  0.39928070  0.64171017    -0.52100
C343        C  0.97234651  0.37125787  0.59854085     0.70000
O344        O  0.97897911  0.35830108  0.60757457    -0.46900
C345        C  0.97433012  0.37809695  0.65653066     0.74700
O346        O  0.00444683  0.34717708  0.63541314    -0.58800
O347        O  0.98934560  0.36954474  0.65642916    -0.48900
O348        O  0.02322657  0.36272748  0.62021693    -0.55200
C349        C  0.01791433  0.40495818  0.62830089     0.84800
O350        O  0.97830699  0.38645978  0.60354408    -0.57100
O351        O  0.97050912  0.38559961  0.64157064    -0.60400
In352      In  0.99906192  0.13321005  0.87684507     1.36900
C353        C  0.02342433  0.16079598  0.87804997     0.77300
O354        O  0.01710008  0.11093918  0.88842645    -0.61100
O355        O  0.00962994  0.10904338  0.86072432    -0.52100
C356        C  0.97796874  0.13164724  0.90687806     0.70000
O357        O  0.98848058  0.14475784  0.90341072    -0.46900
C358        C  0.97443866  0.13787728  0.84963686     0.74700
O359        O  0.00672136  0.16306895  0.87403153    -0.58800
O360        O  0.97037470  0.13460955  0.86593385    -0.48900
O361        O  0.02745673  0.14462112  0.88161073    -0.55200
C362        C  0.01858440  0.10220116  0.87377035     0.84800
O363        O  0.97887173  0.11901578  0.89538039    -0.57100
O364        O  0.99155910  0.13878827  0.84685422    -0.60400
In365      In  0.11928259  0.24860841  0.66526109     1.36900
C366        C  0.13318813  0.21823428  0.65015454     0.77300
O367        O  0.13916341  0.26817135  0.65318402    -0.61100
O368        O  0.14592613  0.25643641  0.67866990    -0.52100
C369        C  0.08978040  0.26707421  0.65263251     0.70000
O370        O  0.08836525  0.25142864  0.65934714    -0.46900
C371        C  0.11077831  0.24783676  0.70020964     0.74700
O372        O  0.12677157  0.21887012  0.66600375    -0.58800
O373        O  0.10688110  0.23492127  0.68962114    -0.48900
O374        O  0.13029628  0.23244795  0.64112139    -0.55200
C375        C  0.15040831  0.26728851  0.66623067     0.84800
O376        O  0.10611321  0.27222431  0.65099199    -0.57100
O377        O  0.11836336  0.26118810  0.69268740    -0.60400
In378      In  0.12016222  0.25988369  0.84222344     1.36900
C379        C  0.13584275  0.29007205  0.85543434     0.77300
O380        O  0.14156296  0.24257009  0.85552070    -0.61100
O381        O  0.14494817  0.24939500  0.82767262    -0.52100
C382        C  0.09143837  0.24256207  0.85747613     0.70000
O383        O  0.09019992  0.25881968  0.85229706    -0.46900
C384        C  0.11139547  0.26070960  0.80722366     0.74700
O385        O  0.12669306  0.28993267  0.84089339    -0.58800
O386        O  0.11643104  0.24644131  0.81521943    -0.48900
O387        O  0.13473970  0.27557389  0.86433698    -0.55200
C388        C  0.15103681  0.24088754  0.84126640     0.84800
O389        O  0.10727990  0.23607576  0.85587543    -0.57100
O390        O  0.10983810  0.27439701  0.81741371    -0.60400
In391      In  0.75358344  0.34146358  0.86965910     1.36900
C392        C  0.78599213  0.35584611  0.85956248     0.77300
O393        O  0.75685239  0.31401115  0.88311294    -0.61100
O394        O  0.75520288  0.31567181  0.85433061    -0.52100
C395        C  0.73517627  0.34816597  0.90066528     0.70000
O396        O  0.75078632  0.35514356  0.89771169    -0.46900
C397        C  0.72923083  0.34981900  0.84370820     0.74700
O398        O  0.78504910  0.34145124  0.86870779    -0.58800
O399        O  0.73982297  0.33637070  0.84299120    -0.48900
O400        O  0.77077365  0.36385804  0.85791336    -0.55200
C401        C  0.75606272  0.30562957  0.86812984     0.84800
O402        O  0.72970585  0.33796286  0.88809633    -0.57100
O403        O  0.73146447  0.35964315  0.85759353    -0.60400
In404      In  0.74496049  0.16309180  0.86538524     1.36900
C405        C  0.71098698  0.15577399  0.85272023     0.77300
O406        O  0.74808355  0.19147326  0.85590826    -0.61100
O407        O  0.74021165  0.18739138  0.88344323    -0.52100
C408        C  0.76450570  0.15074408  0.89410212     0.70000
O409        O  0.74807501  0.14573954  0.89131954    -0.46900
C410        C  0.76662170  0.15557866  0.83747472     0.74700
O411        O  0.71418967  0.16760818  0.86462044    -0.58800
O412        O  0.76059489  0.17122551  0.84088267    -0.48900
O413        O  0.72465166  0.14586051  0.84927887    -0.55200
C414        C  0.74418031  0.19856415  0.87104955     0.84800
O415        O  0.77039506  0.16153428  0.88228884    -0.57100
O416        O  0.76129180  0.14343981  0.84833459    -0.60400
In417      In  0.62792091  0.36757672  0.99779474     1.36900
C418        C  0.65431326  0.35899208  0.97367220     0.77300
O419        O  0.64535852  0.35331926  0.01832952    -0.61100
O420        O  0.61853788  0.34310802  0.01466870    -0.52100
C421        C  0.62916252  0.39685887  0.01952462     0.70000
O422        O  0.64096411  0.39331566  0.00749649    -0.46900
C423        C  0.59950709  0.37380531  0.97477722     0.74700
O424        O  0.65468237  0.37322634  0.98309923    -0.58800
O425        O  0.59968993  0.36056426  0.98565216    -0.48900
O426        O  0.64043051  0.34921144  0.97657755    -0.55200
C427        C  0.63365103  0.34177090  0.02309141     0.84800
O428        O  0.61607211  0.38567772  0.02008967    -0.57100
O429        O  0.61340327  0.38383360  0.97622380    -0.60400
In430      In  0.86555227  0.13064554  0.99929081     1.36900
C431        C  0.85950035  0.16019750  0.02017269     0.77300
O432        O  0.85563713  0.14500320  0.97425170    -0.61100
O433        O  0.83903083  0.12360069  0.98368742    -0.52100
C434        C  0.89469850  0.12484540  0.97766561     0.70000
O435        O  0.89286077  0.13884815  0.98737512    -0.46900
C436        C  0.86821700  0.10355037  0.02406016     0.74700
O437        O  0.87529389  0.15595402  0.01452096    -0.58800
O438        O  0.85391680  0.10618652  0.01463060    -0.48900
O439        O  0.84717333  0.14924996  0.01536837    -0.55200
C440        C  0.84128690  0.13579628  0.97182811     0.84800
O441        O  0.88181494  0.11355221  0.97941955    -0.57100
O442        O  0.88084994  0.11468582  0.02077850    -0.60400
In443      In  0.83792038  0.25378994  0.12296503     1.36900
C444        C  0.85205578  0.28339053  0.13904717     0.77300
O445        O  0.81166118  0.26911334  0.11684014    -0.61100
O446        O  0.80982341  0.24242785  0.12723270    -0.52100
C447        C  0.84967842  0.24190018  0.09043344     0.70000
O448        O  0.86073177  0.24767076  0.10233428    -0.46900
C449        C  0.84251059  0.22667474  0.14634835     0.74700
O450        O  0.85839534  0.26769421  0.14128528    -0.58800
O451        O  0.83371710  0.24089873  0.15020081    -0.48900
O452        O  0.83965551  0.28429044  0.12708532    -0.55200
C453        C  0.80135943  0.25632751  0.12186965     0.84800
O454        O  0.83309413  0.24468540  0.09429653    -0.57100
O455        O  0.84920930  0.22643488  0.13053851    -0.60400
In456      In  0.65627195  0.24678620  0.12957561     1.36900
C457        C  0.64216425  0.21552483  0.14143633     0.77300
O458        O  0.68197580  0.23264085  0.11966978    -0.61100
O459        O  0.68455935  0.25746171  0.13408061    -0.52100
C460        C  0.64577093  0.26497287  0.09942338     0.70000
O461        O  0.63763800  0.25068178  0.10430411    -0.46900
C462        C  0.65066847  0.26627577  0.15931421     0.74700
O463        O  0.63384304  0.23045095  0.14284308    -0.58800
O464        O  0.66249421  0.25382755  0.15849143    -0.48900
O465        O  0.65651048  0.21621637  0.13180808    -0.55200
C466        C  0.69257241  0.24459549  0.12610942     0.84800
O467        O  0.65910327  0.26901211  0.10942414    -0.57100
O468        O  0.64125420  0.26836701  0.14503878    -0.60400
In469      In  0.62500664  0.13298659  0.49839702     1.36900
C470        C  0.63460202  0.15876297  0.47442422     0.77300
O471        O  0.63635328  0.14909939  0.52204150    -0.61100
O472        O  0.65079931  0.12540015  0.51482068    -0.52100
C473        C  0.59317602  0.13050412  0.51695129     0.70000
O474        O  0.59699937  0.14356855  0.50659158    -0.46900
C475        C  0.62161101  0.10539784  0.47449004     0.74700
O476        O  0.64459911  0.14537396  0.47838304    -0.58800
O477        O  0.63306765  0.10504413  0.48745498    -0.48900
O478        O  0.61971435  0.15938075  0.48320867    -0.55200
C479        C  0.64996052  0.13897840  0.52524811     0.84800
O480        O  0.60560736  0.11856036  0.51770235    -0.57100
O481        O  0.61176282  0.11944467  0.47428041    -0.60400
In482      In  0.83792421  0.24581479  0.37130524     1.36900
C483        C  0.84777061  0.21239373  0.36052625     0.77300
O484        O  0.81230850  0.23628598  0.38587999    -0.61100
O485        O  0.80970972  0.25321710  0.36265315    -0.52100
C486        C  0.84860650  0.26556049  0.40052156     0.70000
O487        O  0.85750324  0.25168073  0.39549137    -0.46900
C488        C  0.84313178  0.26600001  0.34181239     0.74700
O489        O  0.85712496  0.22622165  0.35679792    -0.58800
O490        O  0.83004455  0.25507624  0.34370152    -0.48900
O491        O  0.83519996  0.21533463  0.37193364    -0.55200
C492        C  0.80167420  0.24472788  0.37516948     0.84800
O493        O  0.83465265  0.26863714  0.39094883    -0.57100
O494        O  0.85450462  0.26602356  0.35484003    -0.60400
In495      In  0.65725356  0.25334258  0.36771643     1.36900
C496        C  0.64138264  0.28437446  0.35662414     0.77300
O497        O  0.68457770  0.25696580  0.35455906    -0.61100
O498        O  0.68358511  0.25790558  0.38345422    -0.52100
C499        C  0.64884628  0.23479289  0.39794945     0.70000
O500        O  0.66085395  0.22996133  0.38661600    -0.46900
C501        C  0.65070317  0.22941151  0.34150386     0.74700
O502        O  0.63451502  0.26901518  0.35390848    -0.58800
O503        O  0.66456158  0.23956245  0.34158492    -0.48900
O504        O  0.65508765  0.28411538  0.36715786    -0.55200
C505        C  0.69337919  0.25824551  0.36928036     0.84800
O506        O  0.64116993  0.24973678  0.39415986    -0.57100
O507        O  0.64001124  0.23163395  0.35480751    -0.60400
In508      In  0.86578676  0.37366792  0.49692024     1.36900
C509        C  0.86011088  0.34584107  0.47375473     0.77300
O510        O  0.84177165  0.36149541  0.51219611    -0.61100
O511        O  0.84840040  0.38869140  0.51770195    -0.52100
C512        C  0.89465628  0.37508452  0.52018952     0.70000
O513        O  0.88627325  0.36052857  0.51671445    -0.46900
C514        C  0.86867300  0.39970320  0.47136530     0.74700
O515        O  0.87441521  0.34668542  0.48356185    -0.58800
O516        O  0.85447181  0.39767165  0.48100819    -0.48900
O517        O  0.84920916  0.35890473  0.47613530    -0.55200
C518        C  0.83815261  0.37547645  0.52130455     0.84800
O519        O  0.88870289  0.38841951  0.51127291    -0.57100
O520        O  0.88137944  0.38859893  0.47500566    -0.60400
In521      In  0.74978996  0.34252882  0.62807379     1.36900
C522        C  0.71990645  0.35728475  0.64402043     0.77300
O523        O  0.75704987  0.31484264  0.61800191    -0.61100
O524        O  0.73334023  0.31756870  0.63455454    -0.52100
C525        C  0.76186211  0.35631533  0.59636623     0.70000
O526        O  0.76658564  0.36248225  0.61161460    -0.46900
C527        C  0.77770346  0.34119563  0.65199427     0.74700
O528        O  0.71897566  0.34972662  0.62861906    -0.58800
O529        O  0.77183279  0.32761545  0.64351512    -0.48900
O530        O  0.73601540  0.35837909  0.65015427    -0.55200
C531        C  0.74390411  0.30705860  0.62592841     0.84800
O532        O  0.74923169  0.34476653  0.59727185    -0.57100
O533        O  0.76949762  0.35573069  0.64804199    -0.60400
In534      In  0.75305594  0.16437508  0.62628549     1.36900
C535        C  0.78818297  0.15781525  0.63655134     0.77300
O536        O  0.74350319  0.19194868  0.63427587    -0.61100
O537        O  0.76107219  0.18942706  0.61124029    -0.52100
C538        C  0.73195366  0.15337106  0.59793021     0.70000
O539        O  0.74782569  0.14672314  0.60070914    -0.46900
C540        C  0.73457109  0.15659837  0.65614462     0.74700
O541        O  0.78343359  0.17081155  0.62653275    -0.58800
O542        O  0.74408574  0.17066673  0.65428567    -0.48900
O543        O  0.77547551  0.14649961  0.63909070    -0.55200
C544        C  0.75214471  0.19982386  0.62170713     0.84800
O545        O  0.72756370  0.16528152  0.60930627    -0.57100
O546        O  0.73528695  0.14568210  0.64292523    -0.60400
In547      In  0.62152146  0.16387257  0.74322527     1.36900
C548        C  0.63489405  0.15209855  0.77516896     0.77300
O549        O  0.63516792  0.14586003  0.72284363    -0.61100
O550        O  0.64988518  0.16864081  0.73264204    -0.52100
C551        C  0.59234603  0.15296115  0.72397483     0.70000
O552        O  0.60353337  0.16481059  0.71884466    -0.46900
C553        C  0.61602217  0.19918650  0.74603037     0.74700
O554        O  0.62721197  0.16724491  0.77330036    -0.58800
O555        O  0.62796791  0.19231099  0.73563784    -0.48900
O556        O  0.63340996  0.14200122  0.76141914    -0.55200
C557        C  0.64966959  0.15506298  0.72221491     0.84800
O558        O  0.59526428  0.14717207  0.73996601    -0.57100
O559        O  0.60661032  0.18790802  0.75496999    -0.60400
In560      In  0.62427587  0.34146336  0.74452631     1.36900
C561        C  0.63713987  0.35430782  0.71268942     0.77300
O562        O  0.64157956  0.35600381  0.76537628    -0.61100
O563        O  0.65177026  0.33160576  0.75390656    -0.52100
C564        C  0.59451726  0.35316084  0.76327582     0.70000
O565        O  0.60090231  0.36205343  0.75001819    -0.46900
C566        C  0.61833518  0.30629804  0.74000282     0.74700
O567        O  0.62320546  0.34417877  0.71352572    -0.58800
O568        O  0.61439508  0.31773740  0.72783164    -0.48900
O569        O  0.64285709  0.35944114  0.72803955    -0.55200
C570        C  0.65431358  0.34435634  0.76502825     0.84800
O571        O  0.60290688  0.33861773  0.76608995    -0.57100
O572        O  0.62508898  0.31290678  0.75430957    -0.60400
In573      In  0.49712070  0.37897084  0.86983024     1.36900
C574        C  0.52066445  0.36982903  0.84276939     0.77300
O575        O  0.52129650  0.38853781  0.88718589    -0.61100
O576        O  0.50454131  0.36779115  0.89758240    -0.52100
C577        C  0.47623128  0.40955440  0.87196527     0.70000
O578        O  0.49066205  0.40838760  0.86250504    -0.46900
C579        C  0.47134362  0.35423223  0.86235279     0.74700
O580        O  0.51288478  0.38509780  0.84351356    -0.58800
O581        O  0.48052669  0.35401120  0.87692539    -0.48900
O582        O  0.51648310  0.35959294  0.85580231    -0.55200
C583        C  0.51864655  0.37735089  0.89987529     0.84800
O584        O  0.47302287  0.39543236  0.88099913    -0.57100
O585        O  0.47538694  0.36707173  0.85180076    -0.60400
In586      In  0.49235497  0.12590068  0.62075222     1.36900
C587        C  0.46979492  0.15499135  0.62095200     0.77300
O588        O  0.47228485  0.10477166  0.61035224    -0.61100
O589        O  0.47746411  0.10539911  0.63857037    -0.52100
C590        C  0.51446651  0.11994446  0.59194409     0.70000
O591        O  0.50428046  0.13368964  0.59342784    -0.46900
C592        C  0.51946918  0.13250089  0.64471493     0.74700
O593        O  0.47056153  0.14386421  0.60799865    -0.58800
O594        O  0.51710788  0.14124608  0.63016488    -0.48900
O595        O  0.48049212  0.15123026  0.63388630    -0.55200
C596        C  0.46865496  0.09811714  0.62571098     0.84800
O597        O  0.51271509  0.10878960  0.60482832    -0.57100
O598        O  0.50773276  0.12018235  0.64726797    -0.60400
In599      In  0.37303775  0.25290151  0.65555922     1.36900
C600        C  0.36357963  0.28661685  0.64613192     0.77300
O601        O  0.34834005  0.24259664  0.64063438    -0.61100
O602        O  0.36063351  0.22561426  0.66050181    -0.52100
C603        C  0.40411463  0.23882887  0.64184345     0.70000
O604        O  0.38875210  0.23726644  0.63413742    -0.46900
C605        C  0.36946999  0.25425629  0.69168261     0.74700
O606        O  0.37577969  0.28334965  0.65788670    -0.58800
O607        O  0.38381962  0.24858388  0.68394394    -0.48900
O608        O  0.35858450  0.27289941  0.63729597    -0.55200
C609        C  0.34800045  0.22768622  0.64890496     0.84800
O610        O  0.40403102  0.24973383  0.65502100    -0.57100
O611        O  0.35676556  0.25879216  0.68093117    -0.60400
In612      In  0.36917023  0.25511075  0.83581894     1.36900
C613        C  0.35742870  0.22198936  0.84519031     0.77300
O614        O  0.35175872  0.27289930  0.85354474    -0.61100
O615        O  0.34182980  0.26514404  0.82737417    -0.52100
C616        C  0.39736792  0.27542213  0.84785825     0.70000
O617        O  0.39362404  0.26036622  0.85513853    -0.46900
C618        C  0.37408619  0.25308856  0.80009141     0.74700
O619        O  0.37042241  0.22452227  0.83415852    -0.58800
O620        O  0.38410797  0.24446617  0.81120312    -0.48900
O621        O  0.35241847  0.23611795  0.85339246    -0.55200
C622        C  0.33906118  0.27393326  0.84182370     0.84800
O623        O  0.38703174  0.27941004  0.83477494    -0.57100
O624        O  0.36196348  0.26289439  0.80739173    -0.60400
In625      In  0.12675069  0.62733684  0.50061991     1.36900
C626        C  0.12526022  0.65214240  0.52754568     0.77300
O627        O  0.11468122  0.60475052  0.51785385    -0.61100
O628        O  0.14334867  0.60435758  0.51346642    -0.52100
C629        C  0.09732885  0.62791187  0.47763971     0.70000
O630        O  0.09979256  0.63928199  0.49014950    -0.46900
C631        C  0.15699975  0.63471515  0.48055911     0.74700
O632        O  0.12351960  0.63537315  0.52995080    -0.58800
O633        O  0.14826981  0.62006388  0.47916744    -0.48900
O634        O  0.12729172  0.65652241  0.51106153    -0.55200
C635        C  0.12981285  0.59707099  0.52132561     0.84800
O636        O  0.10970688  0.61600722  0.47703961    -0.57100
O637        O  0.15060208  0.64518039  0.49250481    -0.60400
In638      In  0.23852052  0.83766761  0.37307870     1.36900
C639        C  0.20683258  0.84958482  0.35784509     0.77300
O640        O  0.25808148  0.85186846  0.35458677    -0.61100
O641        O  0.24847074  0.82584205  0.34690544    -0.52100
C642        C  0.25482554  0.85245382  0.40260107     0.70000
O643        O  0.23879124  0.84595700  0.40321454    -0.46900
C644        C  0.24017897  0.80294147  0.38230671     0.74700
O645        O  0.20900193  0.83380430  0.36380065    -0.58800
O646        O  0.22660009  0.81292056  0.38613446    -0.48900
O647        O  0.22008463  0.85992646  0.36152048    -0.55200
C648        C  0.25862738  0.83912114  0.34318864     0.84800
O649        O  0.26157151  0.85255897  0.38689243    -0.57100
O650        O  0.25320920  0.81095474  0.37443760    -0.60400
In651      In  0.25221363  0.66157180  0.37575649     1.36900
C652        C  0.28385231  0.64792402  0.36240038     0.77300
O653        O  0.22780293  0.65053053  0.36042940    -0.61100
O654        O  0.24350640  0.67106240  0.34796520    -0.52100
C655        C  0.23611765  0.64861358  0.40620742     0.70000
O656        O  0.24216024  0.63845362  0.39378642    -0.46900
C657        C  0.25458991  0.69669493  0.38193596     0.74700
O658        O  0.28349600  0.66133296  0.37297847    -0.58800
O659        O  0.24010901  0.68919367  0.37618200    -0.48900
O660        O  0.26850312  0.64032165  0.36065953    -0.55200
C661        C  0.22999664  0.66053547  0.34675286     0.84800
O662        O  0.24024541  0.66490648  0.40400450    -0.57100
O663        O  0.26802601  0.68609941  0.38464099    -0.60400
In664      In  0.36330409  0.87314489  0.49690785     1.36900
C665        C  0.33502152  0.87474438  0.47321037     0.77300
O666        O  0.38645013  0.88543885  0.48008361    -0.61100
O667        O  0.38345859  0.85710763  0.47943141    -0.52100
C668        C  0.36016628  0.90213872  0.51929804     0.70000
O669        O  0.34673865  0.89537092  0.51090044    -0.46900
C670        C  0.36452115  0.84488514  0.52050666     0.74700
O671        O  0.33404875  0.86644829  0.48819168    -0.58800
O672        O  0.35341339  0.84562941  0.50732308    -0.48900
O673        O  0.35022805  0.88248188  0.47066771    -0.55200
C674        C  0.39224677  0.87065122  0.47369817     0.84800
O675        O  0.37520644  0.89435330  0.51594586    -0.57100
O676        O  0.37524003  0.85822975  0.52120704    -0.60400
In677      In  0.15238400  0.74655276  0.63253898     1.36900
C678        C  0.13789827  0.77804644  0.64444476     0.77300
O679        O  0.16695267  0.73681508  0.65764834    -0.61100
O680        O  0.13898201  0.72967244  0.65436443    -0.52100
C681        C  0.13830094  0.72944390  0.60310253     0.70000
O682        O  0.14259607  0.74598460  0.60274746    -0.46900
C683        C  0.18806939  0.74634378  0.62425750     0.74700
O684        O  0.13051899  0.76287894  0.64715795    -0.58800
O685        O  0.17828087  0.73232543  0.62435690    -0.48900
O686        O  0.15144372  0.77734157  0.63378815    -0.55200
C687        C  0.15336024  0.72834999  0.66389446     0.84800
O688        O  0.13951287  0.72256689  0.61867824    -0.57100
O689        O  0.17949495  0.76069351  0.62815355    -0.60400
In690      In  0.33312082  0.75160611  0.62419906     1.36900
C691        C  0.34723048  0.72038704  0.63731652     0.77300
O692        O  0.34442630  0.77498451  0.64027045    -0.61100
O693        O  0.32458748  0.75814328  0.65275398    -0.52100
C694        C  0.34565590  0.76583917  0.59267912     0.70000
O695        O  0.33334135  0.75389850  0.59322831    -0.46900
C696        C  0.29697503  0.75508904  0.61963700     0.74700
O697        O  0.35673443  0.73443940  0.63521789    -0.58800
O698        O  0.30709759  0.76771802  0.62526640    -0.48900
O699        O  0.33137876  0.72164958  0.63059111    -0.55200
C700        C  0.33473086  0.77185417  0.65412973     0.84800
O701        O  0.35295357  0.76883736  0.60792188    -0.57100
O702        O  0.30549574  0.74072034  0.61555565    -0.60400
In703      In  0.12905249  0.49961608  0.62989611     1.36900
C704        C  0.13453553  0.52441590  0.65611410     0.77300
O705        O  0.14291389  0.48026057  0.64899257    -0.61100
O706        O  0.15534665  0.48373878  0.62328217    -0.52100
C707        C  0.10064633  0.47665819  0.62518994     0.70000
O708        O  0.10183476  0.48724877  0.63863415    -0.46900
C709        C  0.12564961  0.52277313  0.60156484     0.74700
O710        O  0.12055081  0.51432115  0.65599596    -0.58800
O711        O  0.13945380  0.51251102  0.60352444    -0.48900
O712        O  0.14536472  0.52166326  0.64300853    -0.55200
C713        C  0.15594284  0.47593932  0.63857483     0.84800
O714        O  0.11380917  0.47805744  0.61410852    -0.57100
O715        O  0.11362560  0.52076051  0.61376817    -0.60400
In716      In  0.24405690  0.37871570  0.84438050     1.36900
C717        C  0.21088783  0.36760790  0.85534691     0.77300
O718        O  0.22913584  0.38351251  0.81805098    -0.61100
O719        O  0.25675715  0.37404734  0.81702529    -0.52100
C720        C  0.26148811  0.40943895  0.85333854     0.70000
O721        O  0.25085142  0.40158509  0.86438548    -0.46900
C722        C  0.26578499  0.35137352  0.85286240     0.74700
O723        O  0.21299156  0.38146073  0.84551495    -0.58800
O724        O  0.25452018  0.35092590  0.83982688    -0.48900
O725        O  0.22566852  0.36133698  0.86168388    -0.55200
C726        C  0.24260489  0.37876670  0.80829646     0.84800
O727        O  0.26163689  0.40247245  0.83778504    -0.57100
O728        O  0.26554496  0.36578174  0.86207378    -0.60400
In729      In  0.25063336  0.36973381  0.66507159     1.36900
C730        C  0.28152832  0.35570433  0.65068302     0.77300
O731        O  0.26553933  0.38140264  0.68948617    -0.61100
O732        O  0.24195161  0.36501909  0.69361532    -0.52100
C733        C  0.23337818  0.40037758  0.65463397     0.70000
O734        O  0.24822149  0.39532554  0.64727585    -0.46900
C735        C  0.22797245  0.34221106  0.65965310     0.74700
O736        O  0.28161375  0.36538321  0.66482223    -0.58800
O737        O  0.23820416  0.34335244  0.67347830    -0.48900
O738        O  0.26599315  0.35455665  0.64321748    -0.55200
C739        C  0.25442107  0.37448654  0.70072016     0.84800
O740        O  0.22809402  0.39010877  0.66711576    -0.57100
O741        O  0.22985147  0.35488034  0.64831177    -0.60400
In742      In  0.36686317  0.50804069  0.87080399     1.36900
C743        C  0.34084140  0.48364297  0.86282773     0.77300
O744        O  0.34895529  0.52614150  0.85395937    -0.61100
O745        O  0.37703764  0.52490821  0.84671480    -0.52100
C746        C  0.36526950  0.53120183  0.89936181     0.70000
O747        O  0.35217319  0.52106150  0.89478458    -0.46900
C748        C  0.39496522  0.48419528  0.87550542     0.74700
O749        O  0.34259728  0.49057587  0.87844706    -0.58800
O750        O  0.39526298  0.49636900  0.86344481    -0.48900
O751        O  0.35252978  0.48907896  0.85139955    -0.55200
C752        C  0.36132772  0.53143471  0.84326546     0.84800
O753        O  0.37940125  0.52917771  0.88962191    -0.57100
O754        O  0.38087344  0.48490806  0.88544895    -0.60400
In755      In  0.34007947  0.63270485  0.74514025     1.36900
C756        C  0.34834910  0.64250282  0.71084492     0.77300
O757        O  0.31209738  0.61985069  0.74404480    -0.61100
O758        O  0.31381370  0.64747704  0.75169208    -0.52100
C759        C  0.35131887  0.60212911  0.76130549     0.70000
O760        O  0.36247590  0.61240672  0.75314984    -0.46900
C761        C  0.35015096  0.65688157  0.76981809     0.74700
O762        O  0.35814799  0.64664757  0.72429485    -0.58800
O763        O  0.35686464  0.64118860  0.76941769    -0.48900
O764        O  0.33609574  0.63110426  0.71453243    -0.55200
C765        C  0.30364493  0.63394100  0.74904711     0.84800
O766        O  0.33473076  0.60648065  0.75915163    -0.57100
O767        O  0.33877195  0.66023441  0.75732763    -0.60400
In768      In  0.15908539  0.62274578  0.75931541     1.36900
C769        C  0.14756037  0.63312368  0.79247406     0.77300
O770        O  0.18553845  0.60703167  0.76366392    -0.61100
O771        O  0.18687369  0.63526597  0.75869957    -0.52100
C772        C  0.14886734  0.59430328  0.73864676     0.70000
O773        O  0.14295477  0.59627343  0.75473999    -0.46900
C774        C  0.15108838  0.65100898  0.73840662     0.74700
O775        O  0.13859282  0.63624570  0.77815993    -0.58800
O776        O  0.13940909  0.63891395  0.74195995    -0.48900
O777        O  0.16079852  0.62232348  0.79018466    -0.55200
C778        C  0.19560426  0.62076742  0.76134488     0.84800
O779        O  0.15984669  0.60646329  0.73381751    -0.57100
O780        O  0.16656469  0.64860217  0.74572291    -0.60400
In781      In  0.15387105  0.74857870  0.87150560     1.36900
C782        C  0.14187156  0.71591677  0.85981868     0.77300
O783        O  0.14211384  0.77211155  0.85584869    -0.61100
O784        O  0.16106425  0.75500002  0.84239869    -0.52100
C785        C  0.13941997  0.76324560  0.90199788     0.70000
O786        O  0.13080553  0.76213611  0.88717220    -0.46900
C787        C  0.18981609  0.75274384  0.87704432     0.74700
O788        O  0.13184640  0.72982059  0.86019819    -0.58800
O789        O  0.17951611  0.76544342  0.87168979    -0.48900
O790        O  0.15722323  0.71818269  0.86736129    -0.55200
C791        C  0.15088730  0.76878982  0.84146195     0.84800
O792        O  0.15433672  0.75458403  0.90199703    -0.57100
O793        O  0.18163165  0.73796906  0.87992321    -0.60400
In794      In  0.33587470  0.75266635  0.87370133     1.36900
C795        C  0.34455337  0.78646111  0.86339949     0.77300
O796        O  0.33239768  0.74626397  0.84428187    -0.61100
O797        O  0.35075050  0.72987531  0.85954989    -0.52100
C798        C  0.34930379  0.73778142  0.90455419     0.70000
O799        O  0.35926871  0.74731695  0.89431035    -0.46900
C800        C  0.29942118  0.74915035  0.87586349     0.74700
O801        O  0.35433676  0.77292028  0.85950071    -0.58800
O802        O  0.30976318  0.73735536  0.86880404    -0.48900
O803        O  0.33180665  0.78301404  0.87447701    -0.55200
C804        C  0.34337246  0.73306978  0.84434043     0.84800
O805        O  0.33278342  0.73737417  0.89969194    -0.57100
O806        O  0.30775292  0.76292384  0.88182924    -0.60400
In807      In  0.37507231  0.63388717  0.00235662     1.36900
C808        C  0.36665002  0.66179819  0.98026272     0.77300
O809        O  0.38889527  0.61771996  0.98021987    -0.61100
O810        O  0.36239998  0.60934120  0.98811948    -0.52100
C811        C  0.40545840  0.63139795  0.02301419     0.70000
O812        O  0.40179446  0.64487045  0.01310783    -0.46900
C813        C  0.35131686  0.63798452  0.02997359     0.74700
O814        O  0.38295079  0.65848030  0.98511250    -0.58800
O815        O  0.36343970  0.64943092  0.02591665    -0.48900
O816        O  0.35504241  0.65104351  0.98685804    -0.55200
C817        C  0.37585971  0.60682839  0.97759568     0.84800
O818        O  0.39391350  0.61873036  0.02176435    -0.57100
O819        O  0.35128111  0.62415368  0.01986065    -0.60400
In820      In  0.13141913  0.87323055  0.99555461     1.36900
C821        C  0.13377983  0.84157637  0.97684101     0.77300
O822        O  0.11894693  0.89237351  0.97459692    -0.61100
O823        O  0.14702588  0.89546634  0.98067089    -0.52100
C824        C  0.10070125  0.87521561  0.01630982     0.70000
O825        O  0.10677591  0.86042562  0.01007154    -0.46900
C826        C  0.15854083  0.87621525  0.02059618     0.74700
O827        O  0.12436450  0.85490497  0.97153003    -0.58800
O828        O  0.14183446  0.87932237  0.02386772    -0.48900
O829        O  0.14156916  0.84421920  0.99193538    -0.55200
C830        C  0.13347392  0.90107492  0.97154878     0.84800
O831        O  0.10996679  0.88873917  0.01141531    -0.57100
O832        O  0.16160438  0.87184467  0.00425912    -0.60400
In833      In  0.24761492  0.66029740  0.12922429     1.36900
C834        C  0.21380463  0.64933261  0.13927824     0.77300
O835        O  0.26616710  0.64128418  0.14426941    -0.61100
O836        O  0.25909310  0.66638881  0.15666292    -0.52100
C837        C  0.26932396  0.64996416  0.10158446     0.70000
O838        O  0.27314397  0.66216580  0.11284268    -0.46900
C839        C  0.24586700  0.69582789  0.12457579     0.74700
O840        O  0.21635675  0.66189796  0.12800896    -0.58800
O841        O  0.25229349  0.68855976  0.13877066    -0.48900
O842        O  0.22830362  0.64106148  0.14355904    -0.55200
C843        C  0.26820055  0.65184407  0.15762808     0.84800
O844        O  0.25362996  0.64295769  0.10394888    -0.57100
O845        O  0.23982204  0.68482283  0.11283675    -0.60400
In846      In  0.24942200  0.83907700  0.12310891     1.36900
C847        C  0.28202915  0.84937536  0.13661823     0.77300
O848        O  0.23371766  0.85017366  0.14684211    -0.61100
O849        O  0.22092907  0.83031890  0.13022433    -0.52100
C850        C  0.23731298  0.85564282  0.09276021     0.70000
O851        O  0.23448293  0.86160600  0.10854682    -0.46900
C852        C  0.25197269  0.80337644  0.12626760     0.74700
O853        O  0.28057057  0.83778807  0.12411021    -0.58800
O854        O  0.25019422  0.81108700  0.11100933    -0.48900
O855        O  0.26717618  0.85735416  0.14031444    -0.55200
C856        C  0.21981543  0.84036517  0.14405276     0.84800
O857        O  0.24820564  0.84233623  0.09227788    -0.57100
O858        O  0.25288016  0.81399488  0.13965429    -0.60400
In859      In  0.15344699  0.87347418  0.74404392     1.36900
C860        C  0.14109567  0.86090737  0.71177845     0.77300
O861        O  0.18087200  0.87162702  0.75758649    -0.61100
O862        O  0.18018058  0.87428137  0.72875705    -0.52100
C863        C  0.14601103  0.90614221  0.75884829     0.70000
O864        O  0.13332272  0.89536763  0.75439614    -0.46900
C865        C  0.14620870  0.84765687  0.76820653     0.74700
O866        O  0.15035444  0.87526715  0.71307480    -0.58800
O867        O  0.15959369  0.84691231  0.75735443    -0.48900
O868        O  0.13619300  0.85464172  0.72690208    -0.55200
C869        C  0.18985777  0.87294877  0.74298578     0.84800
O870        O  0.16159927  0.90107133  0.75365706    -0.57100
O871        O  0.13626688  0.86158581  0.76652191    -0.60400
In872      In  0.33441158  0.87335248  0.75492147     1.36900
C873        C  0.34853780  0.86043324  0.78627843     0.77300
O874        O  0.30851103  0.88469420  0.76754520    -0.61100
O875        O  0.30641046  0.86399838  0.74749752    -0.52100
C876        C  0.34294138  0.90408115  0.73707159     0.70000
O877        O  0.32842689  0.89523485  0.73484645    -0.46900
C878        C  0.34127736  0.84753644  0.73075901     0.74700
O879        O  0.35664360  0.85913399  0.77119907    -0.58800
O880        O  0.32936328  0.84593947  0.74308897    -0.48900
O881        O  0.33441148  0.87032759  0.78574398    -0.55200
C882        C  0.29811875  0.87477396  0.75797751     0.84800
O883        O  0.35290504  0.89815557  0.74989982    -0.57100
O884        O  0.35037695  0.86200521  0.73142129    -0.60400
In885      In  0.12435223  0.00174238  0.86607425     1.36900
C886        C  0.14954634  0.02755761  0.85906990     0.77300
O887        O  0.13967691  0.98441690  0.84534205    -0.61100
O888        O  0.11073760  0.98531815  0.84374636    -0.52100
C889        C  0.12373807  0.97736832  0.89371054     0.70000
O890        O  0.13802430  0.98612581  0.88957815    -0.46900
C891        C  0.09667946  0.02520152  0.87314567     0.74700
O892        O  0.13576984  0.02438801  0.84913281    -0.58800
O893        O  0.09735700  0.01567120  0.85889509    -0.48900
O894        O  0.15101505  0.01695302  0.87250433    -0.55200
C895        C  0.12542443  0.97893019  0.83727516     0.84800
O896        O  0.11005896  0.98133753  0.88395993    -0.57100
O897        O  0.10991232  0.02238938  0.88393057    -0.60400
In898      In  0.36112717  0.99862144  0.62806356     1.36900
C899        C  0.35545435  0.97390562  0.65434736     0.77300
O900        O  0.34462577  0.01672740  0.64641096    -0.61100
O901        O  0.33576989  0.01458618  0.61909002    -0.52100
C902        C  0.38887662  0.02269716  0.62429593     0.70000
O903        O  0.38626592  0.01393904  0.63881051    -0.46900
C904        C  0.36458077  0.97546899  0.59993720     0.74700
O905        O  0.34387214  0.97798351  0.64223144    -0.58800
O906        O  0.35081557  0.98575854  0.60178377    -0.48900
O907        O  0.37049245  0.98233736  0.65295946    -0.55200
C908        C  0.33294587  0.02138096  0.63461721     0.84800
O909        O  0.37759364  0.01883178  0.61186266    -0.57100
O910        O  0.37652094  0.97728656  0.61229167    -0.60400
In911      In  0.24601567  0.13442047  0.83722786     1.36900
C912        C  0.27854909  0.14794671  0.84827384     0.77300
O913        O  0.25577190  0.11864206  0.81287456    -0.61100
O914        O  0.23924317  0.14219529  0.80897516    -0.52100
C915        C  0.22622773  0.10500550  0.84673078     0.70000
O916        O  0.24298032  0.10673072  0.85117476    -0.46900
C917        C  0.22569316  0.16312351  0.84507657     0.74700
O918        O  0.27618648  0.14116580  0.83273827    -0.58800
O919        O  0.23328723  0.16076608  0.82984891    -0.48900
O920        O  0.26523517  0.14537659  0.85893100    -0.55200
C921        C  0.24794839  0.12926842  0.80177292     0.84800
O922        O  0.21998387  0.11826910  0.83798484    -0.57100
O923        O  0.22881971  0.15082878  0.85660257    -0.60400
In924      In  0.24363729  0.12981009  0.65808784     1.36900
C925        C  0.20973430  0.14198406  0.64912831     0.77300
O926        O  0.24359370  0.14715770  0.68314891    -0.61100
O927        O  0.24130385  0.11869507  0.68627669    -0.52100
C928        C  0.25614438  0.09820609  0.64482975     0.70000
O929        O  0.25298504  0.11158885  0.63460859    -0.46900
C930        C  0.27361551  0.14976599  0.65341472     0.74700
O931        O  0.21245198  0.12895402  0.65987918    -0.58800
O932        O  0.27287545  0.13661260  0.66421191    -0.48900
O933        O  0.22412753  0.14724363  0.64127094    -0.55200
C934        C  0.24258566  0.13391531  0.69390509     0.84800
O935        O  0.25052847  0.10034173  0.66084442    -0.57100
O936        O  0.25901708  0.15254617  0.64454677    -0.60400
C937        C  0.24884620  0.12713970  0.78188742    -0.05500
C938        C  0.25460554  0.11082671  0.77392321    -0.05500
C939        C  0.25468173  0.10888831  0.75497975    -0.23600
C940        C  0.24917212  0.12332270  0.74380497     0.18600
C941        C  0.24392316  0.13995296  0.75177716     0.15800
C942        C  0.24364624  0.14168450  0.77072135    -0.18700
C943        C  0.23890449  0.15457669  0.74068784    -0.20500
C944        C  0.23872114  0.15264696  0.72180528    -0.13000
C945        C  0.24323541  0.13600337  0.71378369     0.03600
C946        C  0.24864417  0.12140599  0.72482350    -0.25200
H947        H  0.25872268  0.09949196  0.78234454     0.08700
H948        H  0.25888926  0.09610347  0.74908967     0.12300
H949        H  0.23940318  0.15439860  0.77677558     0.12200
H950        H  0.23502469  0.16744656  0.74661310     0.12000
H951        H  0.23469055  0.16407647  0.71346747     0.12500
H952        H  0.25248584  0.10863038  0.71864841     0.14500
C953        C  0.26724696  0.08215437  0.63940241    -0.05500
C954        C  0.27063002  0.07799496  0.62104452    -0.05500
C955        C  0.28318121  0.06429166  0.61629581    -0.23600
C956        C  0.29302458  0.05488766  0.62982197     0.18600
C957        C  0.28951919  0.05886753  0.64831750     0.15800
C958        C  0.27647136  0.07215787  0.65295812    -0.18700
C959        C  0.29963895  0.05001518  0.66191706    -0.20500
C960        C  0.31349303  0.03773225  0.65728591    -0.13000
C961        C  0.31739617  0.03376445  0.63897384     0.03600
C962        C  0.30677679  0.04211700  0.62524377    -0.25200
H963        H  0.26383509  0.08558788  0.61036315     0.08700
H964        H  0.28566498  0.06149925  0.60203411     0.12300
H965        H  0.27426162  0.07541523  0.66717697     0.12200
H966        H  0.29714372  0.05291268  0.67615679     0.12000
H967        H  0.32131423  0.03141550  0.66812478     0.12500
H968        H  0.30966020  0.03920892  0.61107406     0.14500
C969        C  0.16225828  0.04293271  0.85532761    -0.05500
C970        C  0.15608331  0.05723310  0.84426466    -0.05500
C971        C  0.16729257  0.07213087  0.84067228    -0.23600
C972        C  0.18514189  0.07302319  0.84783529     0.18600
C973        C  0.19175318  0.05872396  0.85881970     0.15800
C974        C  0.18019093  0.04381175  0.86268695    -0.18700
C975        C  0.20981189  0.05966158  0.86566238    -0.20500
C976        C  0.22109729  0.07458397  0.86173996    -0.13000
C977        C  0.21454599  0.08896592  0.85101330     0.03600
C978        C  0.19646507  0.08799399  0.84410968    -0.25200
H979        H  0.14235853  0.05702395  0.83851968     0.08700
H980        H  0.16199178  0.08295187  0.83221898     0.12300
H981        H  0.18517175  0.03288945  0.87120019     0.12200
H982        H  0.21522688  0.04883755  0.87404300     0.12000
H983        H  0.23493914  0.07491601  0.86718504     0.12500
H984        H  0.19118382  0.09887779  0.83571611     0.14500
C985        C  0.34788947  0.91914568  0.72452984    -0.05500
C986        C  0.36474969  0.92832276  0.72574569    -0.05500
C987        C  0.36980090  0.94105337  0.71241352    -0.23600
C988        C  0.35814501  0.94472017  0.69752433     0.18600
C989        C  0.34109903  0.93568092  0.69640689     0.15800
C990        C  0.33607203  0.92317886  0.70987378    -0.18700
C991        C  0.32935873  0.93902685  0.68166427    -0.20500
C992        C  0.33434063  0.95126080  0.66811788    -0.13000
C993        C  0.35118173  0.96051101  0.66889355     0.03600
C994        C  0.36314309  0.95712445  0.68370129    -0.25200
H995        H  0.37418844  0.92538035  0.73677824     0.08700
H996        H  0.38293024  0.94780540  0.71359544     0.12300
H997        H  0.32307087  0.91617479  0.70861287     0.12200
H998        H  0.31627633  0.93215778  0.68058672     0.12000
H999        H  0.32485180  0.95353389  0.65696359     0.12500
H1000       H  0.37614931  0.96416316  0.68452504     0.14500
C1001       C  0.12578711  0.96586255  0.82180893    -0.05500
C1002       C  0.10985703  0.95619807  0.81705187    -0.05500
C1003       C  0.11020948  0.94319477  0.80313407    -0.23600
C1004       C  0.12646503  0.93973031  0.79344267     0.18600
C1005       C  0.14243252  0.94976207  0.79773950     0.15800
C1006       C  0.14205174  0.96261410  0.81195446    -0.18700
C1007       C  0.15863125  0.94654520  0.78795419    -0.20500
C1008       C  0.15923950  0.93310329  0.77456396    -0.13000
C1009       C  0.14371387  0.92245802  0.77059510     0.03600
C1010       C  0.12717946  0.92612121  0.77989675    -0.25200
H1011       H  0.09714736  0.95841843  0.82440596     0.08700
H1012       H  0.09779900  0.93573329  0.80007135     0.12300
H1013       H  0.15440163  0.97003400  0.81537514     0.12200
H1014       H  0.17097520  0.95414461  0.79093471     0.12000
H1015       H  0.17219059  0.93059156  0.76773365     0.12500
H1016       H  0.11515650  0.91795450  0.77715096     0.14500
C1017       C  0.21004396  0.87279031  0.74272659    -0.05500
C1018       C  0.21946483  0.86537621  0.72784649    -0.05500
C1019       C  0.23860133  0.86393348  0.72816010    -0.23600
C1020       C  0.24858150  0.87033037  0.74318875     0.18600
C1021       C  0.23924146  0.87849741  0.75792876     0.15800
C1022       C  0.21997539  0.87947460  0.75770438    -0.18700
C1023       C  0.24934520  0.88546852  0.77263859    -0.20500
C1024       C  0.26855693  0.88431309  0.77273302    -0.13000
C1025       C  0.27787509  0.87587697  0.75831260     0.03600
C1026       C  0.26776945  0.86881096  0.74362784    -0.25200
H1027       H  0.21196985  0.86017704  0.71621000     0.08700
H1028       H  0.24557902  0.85779970  0.71670063     0.12300
H1029       H  0.21271967  0.88542178  0.76910272     0.12200
H1030       H  0.24241919  0.89186045  0.78397806     0.12000
H1031       H  0.27612819  0.88989365  0.78413531     0.12500
H1032       H  0.27486593  0.86248687  0.73233202     0.14500
C1033       C  0.24579261  0.71561177  0.12191585    -0.05500
C1034       C  0.24091540  0.72313154  0.10503196    -0.05500
C1035       C  0.24149480  0.74184213  0.10236927    -0.23600
C1036       C  0.24685270  0.75332913  0.11661199     0.18600
C1037       C  0.25157658  0.74587792  0.13371806     0.15800
C1038       C  0.25111382  0.72709254  0.13622593    -0.18700
C1039       C  0.25664180  0.75733634  0.14806765    -0.20500
C1040       C  0.25693660  0.77603510  0.14551353    -0.13000
C1041       C  0.25238327  0.78357534  0.12853767     0.03600
C1042       C  0.24743320  0.77213428  0.11408077    -0.25200
H1043       H  0.23683412  0.71451222  0.09379759     0.08700
H1044       H  0.23777301  0.74731045  0.08921050     0.12300
H1045       H  0.25486629  0.72143012  0.14930534     0.12200
H1046       H  0.26024498  0.75186280  0.16125667     0.12000
H1047       H  0.26071545  0.78462606  0.15687236     0.12500
H1048       H  0.24371731  0.77785749  0.10101880     0.14500
C1049       C  0.12277880  0.96342464  0.90844609    -0.05500
C1050       C  0.10611997  0.95430070  0.91155207    -0.05500
C1051       C  0.10481421  0.94070631  0.92473804    -0.23600
C1052       C  0.12016867  0.93578937  0.93519835     0.18600
C1053       C  0.13697590  0.94496661  0.93252080     0.15800
C1054       C  0.13819248  0.95875000  0.91918667    -0.18700
C1055       C  0.15230021  0.93997826  0.94307469    -0.20500
C1056       C  0.15108759  0.92587377  0.95581206    -0.13000
C1057       C  0.13452340  0.91643506  0.95837466     0.03600
C1058       C  0.11902838  0.92167971  0.94809030    -0.25200
H1059       H  0.09400925  0.95756502  0.90359946     0.08700
H1060       H  0.09179340  0.93388843  0.92660683     0.12300
H1061       H  0.15113274  0.96563616  0.91702464     0.12200
H1062       H  0.16530875  0.94685085  0.94133781     0.12000
H1063       H  0.16320883  0.92224185  0.96358057     0.12500
H1064       H  0.10612949  0.91462540  0.94993095     0.14500
C1065       C  0.17295802  0.87705160  0.03501859    -0.05500
C1066       C  0.16823850  0.88308599  0.05256915    -0.05500
C1067       C  0.18081991  0.88201508  0.06694651    -0.23600
C1068       C  0.19836733  0.87461678  0.06417509     0.18600
C1069       C  0.20363808  0.86916892  0.04648061     0.15800
C1070       C  0.19098727  0.87067302  0.03192956    -0.18700
C1071       C  0.22107944  0.86133851  0.04390526    -0.20500
C1072       C  0.23258153  0.85777140  0.05885077    -0.13000
C1073       C  0.22712793  0.86247530  0.07657934     0.03600
C1074       C  0.21027076  0.87159086  0.07900307    -0.25200
H1075       H  0.15455110  0.88820085  0.05533487     0.08700
H1076       H  0.17655641  0.88631598  0.08038994     0.12300
H1077       H  0.19483553  0.86598305  0.01848756     0.12200
H1078       H  0.22544027  0.85713337  0.03046029     0.12000
H1079       H  0.24547101  0.85073739  0.05662106     0.12500
H1080       H  0.20579284  0.87513971  0.09260917     0.14500
C1081       C  0.33823239  0.64095614  0.04518629    -0.05500
C1082       C  0.34173019  0.65478616  0.05784754    -0.05500
C1083       C  0.32911907  0.65879949  0.07157668    -0.23600
C1084       C  0.31259530  0.64919355  0.07282352     0.18600
C1085       C  0.30896915  0.63498148  0.06047773     0.15800
C1086       C  0.32193090  0.63080479  0.04679721    -0.18700
C1087       C  0.29227040  0.62552335  0.06185205    -0.20500
C1088       C  0.27921974  0.63031578  0.07511454    -0.13000
C1089       C  0.28268372  0.64458219  0.08726873     0.03600
C1090       C  0.29954052  0.65382207  0.08607967    -0.25200
H1091       H  0.35421101  0.66270066  0.05701130     0.08700
H1092       H  0.33213918  0.66966083  0.08100568     0.12300
H1093       H  0.31907996  0.62011748  0.03710973     0.12200
H1094       H  0.28922594  0.61455413  0.05256198     0.12000
H1095       H  0.26643268  0.62289132  0.07585323     0.12500
H1096       H  0.30249601  0.66479194  0.09541226     0.14500
C1097       C  0.35390389  0.84952888  0.80250339    -0.05500
C1098       C  0.36906539  0.83770119  0.80156852    -0.05500
C1099       C  0.37167679  0.82420204  0.81471979    -0.23600
C1100       C  0.35906551  0.82213086  0.82901115     0.18600
C1101       C  0.34451669  0.83472438  0.83081633     0.15800
C1102       C  0.34214808  0.84845344  0.81769007    -0.18700
C1103       C  0.33184598  0.83263811  0.84503358    -0.20500
C1104       C  0.33279109  0.81757822  0.85654376    -0.13000
C1105       C  0.34645672  0.80429481  0.85417349     0.03600
C1106       C  0.36002782  0.80705700  0.84076918    -0.25200
H1107       H  0.37835339  0.83820884  0.79007345     0.08700
H1108       H  0.38301603  0.81480447  0.81316437     0.12300
H1109       H  0.33036829  0.85741381  0.81859193     0.12200
H1110       H  0.32066131  0.84219525  0.84671872     0.12000
H1111       H  0.32214927  0.81582135  0.86668521     0.12500
H1112       H  0.37060887  0.79691900  0.83870808     0.14500
C1113       C  0.35597863  0.72680146  0.92023234    -0.05500
C1114       C  0.37451892  0.72643982  0.92570732    -0.05500
C1115       C  0.38051940  0.71426755  0.93925171    -0.23600
C1116       C  0.36810639  0.70209626  0.94735896     0.18600
C1117       C  0.34942108  0.70278289  0.94212920     0.15800
C1118       C  0.34353146  0.71511089  0.92885591    -0.18700
C1119       C  0.33682831  0.69079736  0.94987293    -0.20500
C1120       C  0.34263837  0.67791426  0.96244338    -0.13000
C1121       C  0.36118447  0.67660606  0.96763321     0.03600
C1122       C  0.37394105  0.68896852  0.96019874    -0.25200
H1123       H  0.38442031  0.73524413  0.91924179     0.08700
H1124       H  0.39489991  0.71406917  0.94304300     0.12300
H1125       H  0.32920582  0.71513050  0.92478672     0.12200
H1126       H  0.32246027  0.69119683  0.94599600     0.12000
H1127       H  0.33250971  0.66868505  0.96791485     0.12500
H1128       H  0.38827889  0.68814703  0.96408187     0.14500
C1129       C  0.14990575  0.78045321  0.82516622    -0.05500
C1130       C  0.16071604  0.77648551  0.80984026    -0.05500
C1131       C  0.16129407  0.78839278  0.79510170    -0.23600
C1132       C  0.15108810  0.80450537  0.79547327     0.18600
C1133       C  0.13956087  0.80827247  0.81049072     0.15800
C1134       C  0.13899109  0.79619005  0.82521905    -0.18700
C1135       C  0.12925503  0.82434352  0.81077124    -0.20500
C1136       C  0.13090152  0.83688546  0.79663685    -0.13000
C1137       C  0.14292155  0.83359533  0.78206152     0.03600
C1138       C  0.15268767  0.81717561  0.78136411    -0.25200
H1139       H  0.16914149  0.76437856  0.80944941     0.08700
H1140       H  0.17007915  0.78522941  0.78364196     0.12300
H1141       H  0.13052489  0.79932068  0.83692820     0.12200
H1142       H  0.12027252  0.82740396  0.82210802     0.12000
H1143       H  0.12321475  0.84943989  0.79740817     0.12500
H1144       H  0.16188298  0.81446262  0.77009525     0.14500
C1145       C  0.13356560  0.77547162  0.91709426    -0.05500
C1146       C  0.11769152  0.78618167  0.91499973    -0.05500
C1147       C  0.11408340  0.80064586  0.92680092    -0.23600
C1148       C  0.12626232  0.80475342  0.94103135     0.18600
C1149       C  0.14168756  0.79345678  0.94402968     0.15800
C1150       C  0.14522658  0.77884741  0.93208832    -0.18700
C1151       C  0.15369587  0.79746126  0.95846994    -0.20500
C1152       C  0.15076221  0.81276504  0.96943049    -0.13000
C1153       C  0.13590582  0.82454497  0.96608800     0.03600
C1154       C  0.12355856  0.82026541  0.95194194    -0.25200
H1155       H  0.10849391  0.78397302  0.90360624     0.08700
H1156       H  0.10208275  0.80901699  0.92438922     0.12300
H1157       H  0.15756107  0.77079479  0.93386955     0.12200
H1158       H  0.16555098  0.78895954  0.96108149     0.12000
H1159       H  0.16046872  0.81569125  0.98022536     0.12500
H1160       H  0.11197169  0.82912493  0.94928202     0.14500
C1161       C  0.20989093  0.75491114  0.87919852    -0.05500
C1162       C  0.21754543  0.77214107  0.88182019    -0.05500
C1163       C  0.23662700  0.77437499  0.88268869    -0.23600
C1164       C  0.24839028  0.75946115  0.88045003     0.18600
C1165       C  0.24077754  0.74207065  0.87780739     0.15800
C1166       C  0.22160145  0.73986168  0.87756671    -0.18700
C1167       C  0.25246492  0.72724634  0.87490515    -0.20500
C1168       C  0.27149679  0.72965004  0.87431012    -0.13000
C1169       C  0.27924924  0.74683594  0.87698517     0.03600
C1170       C  0.26759985  0.76168995  0.88031636    -0.25200
H1171       H  0.20874216  0.78391600  0.88312005     0.08700
H1172       H  0.24217594  0.78780303  0.88467506     0.12300
H1173       H  0.21580264  0.72655687  0.87533321     0.12200
H1174       H  0.24688091  0.71385002  0.87277675     0.12000
H1175       H  0.28019696  0.71799759  0.87177957     0.12500
H1176       H  0.27343944  0.77501691  0.88226146     0.14500
C1177       C  0.14447379  0.64327577  0.80972970    -0.05500
C1178       C  0.15692955  0.64134587  0.82426070    -0.05500
C1179       C  0.15753705  0.65415374  0.83832734    -0.23600
C1180       C  0.14573523  0.66921514  0.83812627     0.18600
C1181       C  0.13215090  0.67051838  0.82440860     0.15800
C1182       C  0.13150149  0.65747936  0.81038729    -0.18700
C1183       C  0.12025480  0.68550074  0.82426998    -0.20500
C1184       C  0.12258693  0.69962113  0.83679311    -0.13000
C1185       C  0.13690259  0.69913691  0.84968152     0.03600
C1186       C  0.14803418  0.68351735  0.85067242    -0.25200
H1187       H  0.16706559  0.63058462  0.82413831     0.08700
H1188       H  0.16790988  0.65278153  0.84883750     0.12300
H1189       H  0.12182812  0.65919477  0.79928690     0.12200
H1190       H  0.10966254  0.68669738  0.81395902     0.12000
H1191       H  0.11383689  0.71144697  0.83566486     0.12500
H1192       H  0.15912447  0.68292861  0.86052643     0.14500
C1193       C  0.35426883  0.66999037  0.78423456    -0.05500
C1194       C  0.36258717  0.66440908  0.80055540    -0.05500
C1195       C  0.36352931  0.67622027  0.81538785    -0.23600
C1196       C  0.35610382  0.69370348  0.81402951     0.18600
C1197       C  0.34864338  0.69963753  0.79726602     0.15800
C1198       C  0.34795549  0.68781468  0.78245607    -0.18700
C1199       C  0.34107518  0.71699215  0.79581408    -0.20500
C1200       C  0.33998056  0.72806465  0.81110450    -0.13000
C1201       C  0.34664451  0.72205810  0.82799881     0.03600
C1202       C  0.35522263  0.70506274  0.82930390    -0.25200
H1203       H  0.36756086  0.65067061  0.80212884     0.08700
H1204       H  0.36939203  0.67147398  0.82807534     0.12300
H1205       H  0.34163939  0.69221034  0.76983858     0.12200
H1206       H  0.33541553  0.72174691  0.78303838     0.12000
H1207       H  0.33347374  0.74120909  0.80980385     0.12500
H1208       H  0.36038985  0.70036926  0.84230931     0.14500
C1209       C  0.28353953  0.63452255  0.75175470    -0.05500
C1210       C  0.27412452  0.65113073  0.75151002    -0.05500
C1211       C  0.25505684  0.65174487  0.75377781    -0.23600
C1212       C  0.24512936  0.63575079  0.75659007     0.18600
C1213       C  0.25452248  0.61900538  0.75728858     0.15800
C1214       C  0.27366079  0.61848416  0.75474222    -0.18700
C1215       C  0.24457319  0.60305144  0.76032122    -0.20500
C1216       C  0.22542890  0.60362984  0.76216729    -0.13000
C1217       C  0.21593290  0.62014925  0.76101887     0.03600
C1218       C  0.22593883  0.63621236  0.75846124    -0.25200
H1219       H  0.28149820  0.66364653  0.74928318     0.08700
H1220       H  0.24808527  0.66468321  0.75326014     0.12300
H1221       H  0.28086421  0.60565011  0.75515724     0.12200
H1222       H  0.25155596  0.59012192  0.76099684     0.12000
H1223       H  0.21800716  0.59109457  0.76411144     0.12500
H1224       H  0.21878039  0.64904331  0.75758836     0.14500
C1225       C  0.36408449  0.54440560  0.91471306    -0.05500
C1226       C  0.34755578  0.54688210  0.92437728    -0.05500
C1227       C  0.34642086  0.55936073  0.93877947    -0.23600
C1228       C  0.36181748  0.56964495  0.94387342     0.18600
C1229       C  0.37845052  0.56727787  0.93420208     0.15800
C1230       C  0.37946079  0.55477781  0.91973401    -0.18700
C1231       C  0.39387158  0.57748092  0.93912550    -0.20500
C1232       C  0.39288467  0.59000927  0.95334808    -0.13000
C1233       C  0.37648774  0.59268012  0.96310277     0.03600
C1234       C  0.36092574  0.58230471  0.95833367    -0.25200
H1235       H  0.33545643  0.53916519  0.92077774     0.08700
H1236       H  0.33350646  0.56095030  0.94592858     0.12300
H1237       H  0.39227726  0.55309524  0.91240366     0.12200
H1238       H  0.40674009  0.57584423  0.93188934     0.12000
H1239       H  0.40505929  0.59775258  0.95665723     0.12500
H1240       H  0.34814867  0.58424807  0.96564547     0.14500
C1241       C  0.35721379  0.54397210  0.82794004    -0.05500
C1242       C  0.33878716  0.54854746  0.82433591    -0.05500
C1243       C  0.33416911  0.55998559  0.80995051    -0.23600
C1244       C  0.34789105  0.56730876  0.79887070     0.18600
C1245       C  0.36653620  0.56309451  0.80231133     0.15800
C1246       C  0.37111804  0.55130592  0.81679991    -0.18700
C1247       C  0.38016334  0.57096430  0.79131036    -0.20500
C1248       C  0.37533865  0.58313481  0.77737672    -0.13000
C1249       C  0.35679583  0.58740387  0.77399158     0.03600
C1250       C  0.34317644  0.57913266  0.78467534    -0.25200
H1251       H  0.32779588  0.54314141  0.83262264     0.08700
H1252       H  0.31982684  0.56318147  0.80755809     0.12300
H1253       H  0.38537888  0.54797320  0.81946604     0.12200
H1254       H  0.39454859  0.56801315  0.79372639     0.12000
H1255       H  0.38611394  0.58951955  0.76954114     0.12500
H1256       H  0.32883031  0.58246891  0.78245196     0.14500
C1257       C  0.27385562  0.42470187  0.85803740    -0.05500
C1258       C  0.27555627  0.43094200  0.87601584    -0.05500
C1259       C  0.28877342  0.44398618  0.88053582    -0.23600
C1260       C  0.30060812  0.45094662  0.86716769     0.18600
C1261       C  0.29885458  0.44489811  0.84900752     0.15800
C1262       C  0.28548619  0.43194094  0.84456573    -0.18700
C1263       C  0.31071786  0.45166741  0.83562023    -0.20500
C1264       C  0.32430428  0.46422606  0.84018658    -0.13000
C1265       C  0.32628880  0.47034037  0.85820414     0.03600
C1266       C  0.31427893  0.46367827  0.87164841    -0.25200
H1267       H  0.26693913  0.42544343  0.88665887     0.08700
H1268       H  0.28992215  0.44843049  0.89454224     0.12300
H1269       H  0.28446847  0.42715755  0.83065606     0.12200
H1270       H  0.30957126  0.44716339  0.82163430     0.12000
H1271       H  0.33329719  0.46916506  0.82956976     0.12500
H1272       H  0.31565712  0.46827625  0.88559154     0.14500
C1273       C  0.24181873  0.37842675  0.78829964    -0.05500
C1274       C  0.22525524  0.37420531  0.77953590    -0.05500
C1275       C  0.22455012  0.37267872  0.76062149    -0.23600
C1276       C  0.24034007  0.37576449  0.75016757     0.18600
C1277       C  0.25696133  0.38070902  0.75879781     0.15800
C1278       C  0.25767212  0.38175462  0.77789378    -0.18700
C1279       C  0.27255419  0.38435413  0.74815347    -0.20500
C1280       C  0.27173567  0.38274841  0.72915519    -0.13000
C1281       C  0.25543143  0.37718798  0.72060515     0.03600
C1282       C  0.23975486  0.37385518  0.73121569    -0.25200
H1283       H  0.21294182  0.37157433  0.78738650     0.08700
H1284       H  0.21169892  0.36900463  0.75418201     0.12300
H1285       H  0.27043639  0.38519808  0.78463745     0.12200
H1286       H  0.28535321  0.38831520  0.75450546     0.12000
H1287       H  0.28394398  0.38544966  0.72118368     0.12500
H1288       H  0.22704217  0.36981290  0.72470547     0.14500
C1289       C  0.17034710  0.46268185  0.64417755    -0.05500
C1290       C  0.16894615  0.45445500  0.66136892    -0.05500
C1291       C  0.18159088  0.44137386  0.66695241    -0.23600
C1292       C  0.19601811  0.43616553  0.65548792     0.18600
C1293       C  0.19808128  0.44457560  0.63835275     0.15800
C1294       C  0.18518752  0.45784409  0.63275525    -0.18700
C1295       C  0.21278728  0.43923208  0.62709116    -0.20500
C1296       C  0.22485506  0.42531981  0.63252797    -0.13000
C1297       C  0.22238580  0.41650819  0.64928669     0.03600
C1298       C  0.20810726  0.42232214  0.66079755    -0.25200
H1299       H  0.15781291  0.45794713  0.67050984     0.08700
H1300       H  0.17989956  0.43511478  0.68017177     0.12300
H1301       H  0.18653057  0.46414824  0.61951956     0.12200
H1302       H  0.21472543  0.44553992  0.61393996     0.12000
H1303       H  0.23572745  0.42107756  0.62340697     0.12500
H1304       H  0.20609826  0.41574767  0.67382572     0.14500
C1305       C  0.14362578  0.57945089  0.72591819    -0.05500
C1306       C  0.13018427  0.56648493  0.73015688    -0.05500
C1307       C  0.12527818  0.55309581  0.71737468    -0.23600
C1308       C  0.13377951  0.55241224  0.70015623     0.18600
C1309       C  0.14735162  0.56537434  0.69596124     0.15800
C1310       C  0.15210432  0.57867118  0.70873615    -0.18700
C1311       C  0.15609514  0.56491163  0.67901403    -0.20500
C1312       C  0.15167308  0.55162098  0.66630785    -0.13000
C1313       C  0.13826973  0.53852445  0.67008692     0.03600
C1314       C  0.12916644  0.53905908  0.68707832    -0.25200
H1315       H  0.12338170  0.56679232  0.74325260     0.08700
H1316       H  0.11485208  0.54330788  0.72094708     0.12300
H1317       H  0.16250546  0.58852988  0.70519856     0.12200
H1318       H  0.16649931  0.57479598  0.67560224     0.12000
H1319       H  0.15881777  0.55162745  0.65337789     0.12500
H1320       H  0.11883736  0.52901409  0.69019873     0.14500
C1321       C  0.33461819  0.78361389  0.67032869    -0.05500
C1322       C  0.32148171  0.78094785  0.68405717    -0.05500
C1323       C  0.32053700  0.79264938  0.69894420    -0.23600
C1324       C  0.33278471  0.80717128  0.70036668     0.18600
C1325       C  0.34621665  0.80983009  0.68673988     0.15800
C1326       C  0.34704017  0.79804046  0.67179648    -0.18700
C1327       C  0.35842635  0.82439466  0.68815877    -0.20500
C1328       C  0.35713606  0.83640297  0.70278671    -0.13000
C1329       C  0.34367874  0.83399728  0.71624053     0.03600
C1330       C  0.33163706  0.81923085  0.71504726    -0.25200
H1331       H  0.31170418  0.76995555  0.68313710     0.08700
H1332       H  0.31015693  0.79043324  0.70924106     0.12300
H1333       H  0.35718260  0.80020869  0.66124334     0.12200
H1334       H  0.36879632  0.82662996  0.67785221     0.12000
H1335       H  0.36649321  0.84776208  0.70341531     0.12500
H1336       H  0.32112817  0.81734655  0.72529537     0.14500
C1337       C  0.35325330  0.70459740  0.64844021    -0.05500
C1338       C  0.36856492  0.70607303  0.66006329    -0.05500
C1339       C  0.37199566  0.69300593  0.67348855    -0.23600
C1340       C  0.36018157  0.67816095  0.67555514     0.18600
C1341       C  0.34543740  0.67593824  0.66321122     0.15800
C1342       C  0.34210078  0.68911046  0.64973459    -0.18700
C1343       C  0.33362804  0.66111099  0.66520584    -0.20500
C1344       C  0.33562749  0.64928534  0.67994824    -0.13000
C1345       C  0.34947555  0.65199352  0.69302600     0.03600
C1346       C  0.36217497  0.66612815  0.69034245    -0.25200
H1347       H  0.37732220  0.71787508  0.65946245     0.08700
H1348       H  0.38343426  0.69492263  0.68273352     0.12300
H1349       H  0.33021881  0.68779695  0.64091657     0.12200
H1350       H  0.32231803  0.65911205  0.65581490     0.12000
H1351       H  0.32561070  0.63861856  0.68168900     0.12500
H1352       H  0.37285353  0.66847638  0.70035463     0.14500
C1353       C  0.15457304  0.71715615  0.68050100    -0.05500
C1354       C  0.17127321  0.71598499  0.69006716    -0.05500
C1355       C  0.17339580  0.70371933  0.70434717    -0.23600
C1356       C  0.15889098  0.69227097  0.70917391     0.18600
C1357       C  0.14176710  0.69384813  0.70017981     0.15800
C1358       C  0.13964901  0.70643730  0.68601085    -0.18700
C1359       C  0.12734602  0.68221593  0.70493992    -0.20500
C1360       C  0.13016592  0.66856151  0.71782213    -0.13000
C1361       C  0.14736256  0.66648040  0.72627291     0.03600
C1362       C  0.16151028  0.67874380  0.72227404    -0.25200
H1363       H  0.18293206  0.72417757  0.68612998     0.08700
H1364       H  0.18656435  0.70274743  0.71116902     0.12300
H1365       H  0.12670996  0.70726491  0.67873635     0.12200
H1366       H  0.11410430  0.68328546  0.69827090     0.12000
H1367       H  0.11903823  0.65933015  0.72081779     0.12500
H1368       H  0.17480129  0.67731640  0.72879266     0.14500
C1369       C  0.13230878  0.79473883  0.65449060    -0.05500
C1370       C  0.11837806  0.79371410  0.66769718    -0.05500
C1371       C  0.11562878  0.80776872  0.68018503    -0.23600
C1372       C  0.12680398  0.82318524  0.67981398     0.18600
C1373       C  0.13992882  0.82508891  0.66578686     0.15800
C1374       C  0.14256144  0.81087896  0.65313638    -0.18700
C1375       C  0.15098978  0.84064666  0.66544219    -0.20500
C1376       C  0.15010365  0.85337079  0.67963386    -0.13000
C1377       C  0.13816982  0.85078938  0.69445231     0.03600
C1378       C  0.12594987  0.83605044  0.69396660    -0.25200
H1379       H  0.11023302  0.78155136  0.66905959     0.08700
H1380       H  0.10536157  0.80615668  0.69071908     0.12300
H1381       H  0.15335807  0.81190995  0.64305264     0.12200
H1382       H  0.16101703  0.84249070  0.65472954     0.12000
H1383       H  0.15972154  0.86452473  0.67966637     0.12500
H1384       H  0.11666225  0.83388172  0.70527265     0.14500
C1385       C  0.20800584  0.74570713  0.62054163    -0.05500
C1386       C  0.21630779  0.72931968  0.61533475    -0.05500
C1387       C  0.23532646  0.72812050  0.61306482    -0.23600
C1388       C  0.24642185  0.74327994  0.61611779     0.18600
C1389       C  0.23817627  0.75994291  0.62101875     0.15800
C1390       C  0.21900603  0.76109477  0.62307525    -0.18700
C1391       C  0.24929494  0.77504666  0.62427644    -0.20500
C1392       C  0.26840754  0.77351732  0.62323828    -0.13000
C1393       C  0.27675962  0.75692439  0.61878377     0.03600
C1394       C  0.26564818  0.74190445  0.61488643    -0.25200
H1395       H  0.20809195  0.71728602  0.61327093     0.08700
H1396       H  0.24137528  0.71526573  0.60928841     0.12300
H1397       H  0.21274478  0.77376853  0.62714896     0.12200
H1398       H  0.24324826  0.78791437  0.62801701     0.12000
H1399       H  0.27669628  0.78529043  0.62630810     0.12500
H1400       H  0.27194635  0.72904196  0.61152912     0.14500
C1401       C  0.35839858  0.91751358  0.53232092    -0.05500
C1402       C  0.34192923  0.92746106  0.53362412    -0.05500
C1403       C  0.33996959  0.94131962  0.54657145    -0.23600
C1404       C  0.35436234  0.94535569  0.55868449     0.18600
C1405       C  0.37101944  0.93553651  0.55735493     0.15800
C1406       C  0.37299149  0.92187417  0.54411381    -0.18700
C1407       C  0.38534363  0.93926335  0.56955744    -0.20500
C1408       C  0.38315420  0.95233880  0.58314625    -0.13000
C1409       C  0.36666818  0.96216787  0.58480761     0.03600
C1410       C  0.35231935  0.95872984  0.57232139    -0.25200
H1411       H  0.33048511  0.92442477  0.52469866     0.08700
H1412       H  0.32708490  0.94865951  0.54731248     0.12300
H1413       H  0.38574218  0.91428127  0.54333727     0.12200
H1414       H  0.39820222  0.93186834  0.56876112     0.12000
H1415       H  0.39442852  0.95468659  0.59249488     0.12500
H1416       H  0.33950117  0.96614203  0.57344773     0.14500
C1417       C  0.36473052  0.83007760  0.53437672    -0.05500
C1418       C  0.37575635  0.83181697  0.55002802    -0.05500
C1419       C  0.37522866  0.81887337  0.56392397    -0.23600
C1420       C  0.36368872  0.80377131  0.56252637     0.18600
C1421       C  0.35297421  0.80142699  0.54663324     0.15800
C1422       C  0.35352003  0.81460079  0.53266272    -0.18700
C1423       C  0.34150528  0.78621737  0.54528898    -0.20500
C1424       C  0.33997150  0.77401966  0.55985358    -0.13000
C1425       C  0.34992988  0.77667176  0.57606922     0.03600
C1426       C  0.36218731  0.79137585  0.57704876    -0.25200
H1427       H  0.38453891  0.84349707  0.55175987     0.08700
H1428       H  0.38360181  0.82088525  0.57595983     0.12300
H1429       H  0.34497946  0.81299052  0.52067603     0.12200
H1430       H  0.33325915  0.78406004  0.53319696     0.12000
H1431       H  0.33039209  0.76289337  0.55869672     0.12500
H1432       H  0.36991956  0.79368782  0.58945283     0.14500
C1433       C  0.26563984  0.85833547  0.41877336    -0.05500
C1434       C  0.26154986  0.85174119  0.43623762    -0.05500
C1435       C  0.27367845  0.85464823  0.45084283    -0.23600
C1436       C  0.29011488  0.86426689  0.44827136     0.18600
C1437       C  0.29383286  0.87178961  0.43099094     0.15800
C1438       C  0.28163113  0.86877046  0.41641082    -0.18700
C1439       C  0.31010111  0.88156258  0.42835223    -0.20500
C1440       C  0.32302632  0.88309334  0.44237844    -0.13000
C1441       C  0.32002990  0.87487722  0.45936760     0.03600
C1442       C  0.30322825  0.86588329  0.46239162    -0.25200
H1443       H  0.24941520  0.84357578  0.43840604     0.08700
H1444       H  0.27048995  0.84886184  0.46400103     0.12300
H1445       H  0.28495457  0.87396731  0.40302387     0.12200
H1446       H  0.31310257  0.88756908  0.41524942     0.12000
H1447       H  0.33571742  0.89022230  0.43969187     0.12500
H1448       H  0.30065299  0.85959990  0.47545693     0.14500
C1449       C  0.24039606  0.78329390  0.38576859    -0.05500
C1450       C  0.22378578  0.77411518  0.38858822    -0.05500
C1451       C  0.22344231  0.75526628  0.38944991    -0.23600
C1452       C  0.23976181  0.74530243  0.38768678     0.18600
C1453       C  0.25671015  0.75442004  0.38584603     0.15800
C1454       C  0.25691400  0.77339101  0.38476793    -0.18700
C1455       C  0.27305945  0.74435773  0.38451570    -0.20500
C1456       C  0.27249560  0.72544144  0.38413618    -0.13000
C1457       C  0.25558645  0.71637956  0.38483598     0.03600
C1458       C  0.23930699  0.72637200  0.38708970    -0.25200
H1459       H  0.21091019  0.78149146  0.38937331     0.08700
H1460       H  0.21038151  0.74848131  0.39102136     0.12300
H1461       H  0.26979519  0.78038983  0.38270692     0.12200
H1462       H  0.28618098  0.75109782  0.38329577     0.12000
H1463       H  0.28520258  0.71792814  0.38248826     0.12500
H1464       H  0.22624489  0.71943134  0.38790628     0.14500
C1465       C  0.12357323  0.53630398  0.58653531    -0.05500
C1466       C  0.10696114  0.54594152  0.58473472    -0.05500
C1467       C  0.10469917  0.55913789  0.57124260    -0.23600
C1468       C  0.11906466  0.56321263  0.55922260     0.18600
C1469       C  0.13587994  0.55368783  0.56075166     0.15800
C1470       C  0.13801352  0.54020385  0.57431412    -0.18700
C1471       C  0.15032051  0.55807147  0.54885692    -0.20500
C1472       C  0.14823520  0.57189524  0.53587713    -0.13000
C1473       C  0.13159311  0.58152190  0.53426625     0.03600
C1474       C  0.11697044  0.57688373  0.54593906    -0.25200
H1475       H  0.09561412  0.54331902  0.59388018     0.08700
H1476       H  0.09172088  0.56630646  0.57034118     0.12300
H1477       H  0.15095149  0.53301367  0.57554716     0.12200
H1478       H  0.16334756  0.55099579  0.54976916     0.12000
H1479       H  0.15974583  0.57516808  0.52715956     0.12500
H1480       H  0.10410336  0.58425700  0.54503650     0.14500
C1481       C  0.12539257  0.66515593  0.54304161    -0.05500
C1482       C  0.12336451  0.65847224  0.56083206    -0.05500
C1483       C  0.12452952  0.66994957  0.57588086    -0.23600
C1484       C  0.12775684  0.68846883  0.57355757     0.18600
C1485       C  0.12948995  0.69559432  0.55579876     0.15800
C1486       C  0.12827338  0.68388214  0.54057768    -0.18700
C1487       C  0.13279091  0.71422141  0.55371116    -0.20500
C1488       C  0.13487097  0.72548046  0.56902917    -0.13000
C1489       C  0.13360577  0.71838002  0.58674106     0.03600
C1490       C  0.12973019  0.69984121  0.58879655    -0.25200
H1491       H  0.12113389  0.64418456  0.56319045     0.08700
H1492       H  0.12315119  0.66426477  0.58939276     0.12300
H1493       H  0.12990141  0.68924011  0.52696218     0.12200
H1494       H  0.13415405  0.72001553  0.54025159     0.12000
H1495       H  0.13800254  0.73964912  0.56701733     0.12500
H1496       H  0.12881767  0.69408770  0.60232558     0.14500
C1497       C  0.22381935  0.64243170  0.42112223    -0.05500
C1498       C  0.21777555  0.62441685  0.42173583    -0.05500
C1499       C  0.20398841  0.61913524  0.43391521    -0.23600
C1500       C  0.19588608  0.63178236  0.44572998     0.18600
C1501       C  0.20224825  0.64982687  0.44567507     0.15800
C1502       C  0.21618428  0.65502318  0.43344224    -0.18700
C1503       C  0.19420014  0.66247537  0.45751401    -0.20500
C1504       C  0.17980541  0.65737905  0.46905274    -0.13000
C1505       C  0.17303058  0.63957181  0.46895745     0.03600
C1506       C  0.18129171  0.62678041  0.45730494    -0.25200
H1507       H  0.22327958  0.61449375  0.41233334     0.08700
H1508       H  0.19935576  0.60523254  0.43378296     0.12300
H1509       H  0.22057803  0.66899753  0.43305628     0.12200
H1510       H  0.19887842  0.67636015  0.45769979     0.12000
H1511       H  0.17371524  0.66751730  0.47784805     0.12500
H1512       H  0.17625363  0.61300895  0.45710621     0.14500
C1513       C  0.27880506  0.33656242  0.85620642    -0.05500
C1514       C  0.29314247  0.33851847  0.86885266    -0.05500
C1515       C  0.30719070  0.32562983  0.86976731    -0.23600
C1516       C  0.30711995  0.31078305  0.85787406     0.18600
C1517       C  0.29225635  0.30839519  0.84567888     0.15800
C1518       C  0.27806320  0.32111579  0.84516160    -0.18700
C1519       C  0.29229368  0.29387789  0.83344837    -0.20500
C1520       C  0.30739020  0.28231468  0.83266027    -0.13000
C1521       C  0.32245136  0.28488294  0.84432698     0.03600
C1522       C  0.32205004  0.29879326  0.85731690    -0.25200
H1523       H  0.29389256  0.35037417  0.87750700     0.08700
H1524       H  0.31842906  0.32764363  0.87921198     0.12300
H1525       H  0.26700398  0.31950332  0.83541438     0.12200
H1526       H  0.28100220  0.29187821  0.82405847     0.12000
H1527       H  0.30745413  0.27155263  0.82262817     0.12500
H1528       H  0.33370451  0.30085646  0.86625649     0.14500
C1529       C  0.34741722  0.20451213  0.84670171    -0.05500
C1530       C  0.35047471  0.19078045  0.83377715    -0.05500
C1531       C  0.33848820  0.17602365  0.83236768    -0.23600
C1532       C  0.32321980  0.17459776  0.84394865     0.18600
C1533       C  0.32066655  0.18771332  0.85774233     0.15800
C1534       C  0.33271520  0.20258173  0.85900840    -0.18700
C1535       C  0.30560103  0.18617825  0.86952494    -0.20500
C1536       C  0.29273142  0.17232773  0.86717283    -0.13000
C1537       C  0.29444655  0.15980085  0.85285831     0.03600
C1538       C  0.31003179  0.16079754  0.84148693    -0.25200
H1539       H  0.36157776  0.19194503  0.82404669     0.08700
H1540       H  0.34080439  0.16606365  0.82178902     0.12300
H1541       H  0.33011140  0.21307351  0.86899484     0.12200
H1542       H  0.30344100  0.19603375  0.88023532     0.12000
H1543       H  0.28082243  0.17204110  0.87600528     0.12500
H1544       H  0.31150910  0.15132050  0.83032335     0.14500
C1545       C  0.33365118  0.21404395  0.64569672    -0.05500
C1546       C  0.31803003  0.21839413  0.63530522    -0.05500
C1547       C  0.30349887  0.20618390  0.63380486    -0.23600
C1548       C  0.30440035  0.18943209  0.64267780     0.18600
C1549       C  0.32040526  0.18467348  0.65255907     0.15800
C1550       C  0.33496324  0.19696430  0.65391787    -0.18700
C1551       C  0.32131408  0.16797267  0.66149744    -0.20500
C1552       C  0.30620769  0.15640614  0.66128357    -0.13000
C1553       C  0.29004144  0.16125227  0.65197652     0.03600
C1554       C  0.28934922  0.17762550  0.64234337    -0.25200
H1555       H  0.31679016  0.23148712  0.62879444     0.08700
H1556       H  0.29139863  0.21001803  0.62611098     0.12300
H1557       H  0.34702795  0.19346766  0.66184474     0.12200
H1558       H  0.33348492  0.16408372  0.66905217     0.12000
H1559       H  0.30704987  0.14378773  0.66873835     0.12500
H1560       H  0.27691939  0.18146187  0.63516494     0.14500
C1561       C  0.35387795  0.30427241  0.64476381    -0.05500
C1562       C  0.35712843  0.31780984  0.65782654    -0.05500
C1563       C  0.34458608  0.33203049  0.66024756    -0.23600
C1564       C  0.32847338  0.33289323  0.64974081     0.18600
C1565       C  0.32580433  0.32014963  0.63562989     0.15800
C1566       C  0.33862954  0.30608830  0.63307074    -0.18700
C1567       C  0.30968419  0.32088489  0.62517078    -0.20500
C1568       C  0.29579341  0.33329330  0.62942748    -0.13000
C1569       C  0.29775111  0.34530659  0.64415176     0.03600
C1570       C  0.31447724  0.34548916  0.65384430    -0.25200
H1571       H  0.36870537  0.31672807  0.66705353     0.08700
H1572       H  0.34697784  0.34175007  0.67102805     0.12300
H1573       H  0.33589708  0.29572831  0.62298339     0.12200
H1574       H  0.30743839  0.31130574  0.61423206     0.12000
H1575       H  0.28311136  0.33288288  0.62169803     0.12500
H1576       H  0.31617386  0.35466441  0.66523245     0.14500
C1577       C  0.36780450  0.25575007  0.71163734    -0.05500
C1578       C  0.35415624  0.26680784  0.71936724    -0.05500
C1579       C  0.35289840  0.26876687  0.73824718    -0.23600
C1580       C  0.36514906  0.25948629  0.74970126     0.18600
C1581       C  0.37879247  0.24815440  0.74205181     0.15800
C1582       C  0.38012655  0.24646941  0.72306551    -0.18700
C1583       C  0.39086311  0.23867046  0.75352450    -0.20500
C1584       C  0.38942855  0.24038339  0.77241938    -0.13000
C1585       C  0.37598331  0.25166124  0.78014115     0.03600
C1586       C  0.36389693  0.26124790  0.76867467    -0.25200
H1587       H  0.34459116  0.27416224  0.71077406     0.08700
H1588       H  0.34236127  0.27747386  0.74386908     0.12300
H1589       H  0.39064591  0.23787914  0.71719993     0.12200
H1590       H  0.40134411  0.22989256  0.74789625     0.12000
H1591       H  0.39881918  0.23281443  0.78100881     0.12500
H1592       H  0.35341086  0.26990434  0.77448823     0.14500
C1593       C  0.40359231  0.03656033  0.62185543    -0.05500
C1594       C  0.40555546  0.04517830  0.60490261    -0.05500
C1595       C  0.41876306  0.05865093  0.60227331    -0.23600
C1596       C  0.43037890  0.06393306  0.61655679     0.18600
C1597       C  0.42870436  0.05540264  0.63369094     0.15800
C1598       C  0.41537184  0.04171955  0.63623698    -0.18700
C1599       C  0.44029913  0.06087038  0.64798127    -0.20500
C1600       C  0.45325965  0.07466997  0.64536731    -0.13000
C1601       C  0.45506622  0.08323906  0.62837328     0.03600
C1602       C  0.44354366  0.07768110  0.61398897    -0.25200
H1603       H  0.39673968  0.04156145  0.59358728     0.08700
H1604       H  0.41981178  0.06502501  0.58904337     0.12300
H1605       H  0.41402633  0.03527884  0.64941022     0.12200
H1606       H  0.43927196  0.05455226  0.66123746     0.12000
H1607       H  0.46191080  0.07864105  0.65668272     0.12500
H1608       H  0.44467383  0.08419057  0.60082566     0.14500
C1609       C  0.45724430  0.17088159  0.62103671    -0.05500
C1610       C  0.44244020  0.17171326  0.60875469    -0.05500
C1611       C  0.42983765  0.18604020  0.60939286    -0.23600
C1612       C  0.43188813  0.19995602  0.62222664     0.18600
C1613       C  0.44712819  0.19967302  0.63418775     0.15800
C1614       C  0.45966071  0.18509888  0.63358762    -0.18700
C1615       C  0.44923647  0.21370172  0.64690232    -0.20500
C1616       C  0.43586474  0.22729544  0.64844065    -0.13000
C1617       C  0.42014092  0.22717414  0.63728232     0.03600
C1618       C  0.41856124  0.21372483  0.62378415    -0.25200
H1619       H  0.44032164  0.16099280  0.59891591     0.08700
H1620       H  0.41829713  0.18605637  0.60006235     0.12300
H1621       H  0.47112560  0.18470359  0.64301253     0.12200
H1622       H  0.46088572  0.21381293  0.65609886     0.12000
H1623       H  0.43738119  0.23739839  0.65901832     0.12500
H1624       H  0.40647512  0.21338337  0.61515588     0.14500
C1625       C  0.46377808  0.42577317  0.87194659    -0.05500
C1626       C  0.46799846  0.44109447  0.86140067    -0.05500
C1627       C  0.45577685  0.45583176  0.86029408    -0.23600
C1628       C  0.43895934  0.45564484  0.86969851     0.18600
C1629       C  0.43472471  0.44051644  0.88066598     0.15800
C1630       C  0.44708691  0.42574017  0.88171889    -0.18700
C1631       C  0.41804435  0.44029586  0.89021701    -0.20500
C1632       C  0.40557859  0.45470658  0.88875778    -0.13000
C1633       C  0.40929308  0.46971726  0.87759662     0.03600
C1634       C  0.42619554  0.47012590  0.86813995    -0.25200
H1635       H  0.48068553  0.44157348  0.85372451     0.08700
H1636       H  0.45939139  0.46728965  0.85186418     0.12300
H1637       H  0.44354894  0.41408041  0.88990523     0.12200
H1638       H  0.41453231  0.42886578  0.89872805     0.12000
H1639       H  0.39273890  0.45390008  0.89615735     0.12500
H1640       H  0.42933040  0.48156137  0.85948850     0.14500
C1641       C  0.45696326  0.34076040  0.85781854    -0.05500
C1642       C  0.44631023  0.34329655  0.84207184    -0.05500
C1643       C  0.43267313  0.33097755  0.83729635    -0.23600
C1644       C  0.42942713  0.31573501  0.84810496     0.18600
C1645       C  0.43997937  0.31283077  0.86399331     0.15800
C1646       C  0.45370698  0.32544932  0.86883538    -0.18700
C1647       C  0.43655916  0.29734494  0.87460414    -0.20500
C1648       C  0.42285483  0.28493550  0.86945806    -0.13000
C1649       C  0.41231138  0.28786086  0.85367433     0.03600
C1650       C  0.41575546  0.30336523  0.84314321    -0.25200
H1651       H  0.44847779  0.35492667  0.83338634     0.08700
H1652       H  0.42467644  0.33336208  0.82507245     0.12300
H1653       H  0.46185703  0.32331919  0.88100380     0.12200
H1654       H  0.44447039  0.29482942  0.88684483     0.12000
H1655       H  0.42042779  0.27315266  0.87785011     0.12500
H1656       H  0.40776548  0.30585413  0.83092521     0.14500
C1657       C  0.57902297  0.35895006  0.77523585    -0.05500
C1658       C  0.57085479  0.37614361  0.77384311    -0.05500
C1659       C  0.55730453  0.38167524  0.78635084    -0.23600
C1660       C  0.55172235  0.37013563  0.80053793     0.18600
C1661       C  0.55958959  0.35268686  0.80173034     0.15800
C1662       C  0.57303152  0.34723214  0.78912628    -0.18700
C1663       C  0.55419526  0.34102866  0.81575775    -0.20500
C1664       C  0.54143076  0.34668676  0.82877654    -0.13000
C1665       C  0.53367623  0.36412435  0.82813215     0.03600
C1666       C  0.53873068  0.37576271  0.81374177    -0.25200
H1667       H  0.57520918  0.38544143  0.76332492     0.08700
H1668       H  0.55142983  0.39509322  0.78511805     0.12300
H1669       H  0.57913149  0.33390523  0.79041065     0.12200
H1670       H  0.56004613  0.32758273  0.81682228     0.12000
H1671       H  0.53776890  0.33738635  0.83955347     0.12500
H1672       H  0.53282622  0.38920893  0.81299292     0.14500
C1673       C  0.57762651  0.14637568  0.71160917    -0.05500
C1674       C  0.56442022  0.13376760  0.71726722    -0.05500
C1675       C  0.55062619  0.12791986  0.70521699    -0.23600
C1676       C  0.54983213  0.13456709  0.68728326     0.18600
C1677       C  0.56338158  0.14689817  0.68141414     0.15800
C1678       C  0.57712149  0.15263775  0.69351674    -0.18700
C1679       C  0.56283543  0.15360067  0.66359515    -0.20500
C1680       C  0.54866577  0.14861757  0.65181396    -0.13000
C1681       C  0.53479319  0.13668613  0.65745825     0.03600
C1682       C  0.53562367  0.12941757  0.67520357    -0.25200
H1683       H  0.56465918  0.12856105  0.73104301     0.08700
H1684       H  0.54046734  0.11836706  0.70998315     0.12300
H1685       H  0.58736115  0.16215977  0.68883477     0.12200
H1686       H  0.57318937  0.16296218  0.65885496     0.12000
H1687       H  0.54849381  0.15428207  0.63821517     0.12500
H1688       H  0.52505892  0.12016858  0.67971486     0.14500
C1689       C  0.61597683  0.28668576  0.73768085    -0.05500
C1690       C  0.61911091  0.27868108  0.72066288    -0.05500
C1691       C  0.61937679  0.25987463  0.71888129    -0.23600
C1692       C  0.61606576  0.24883539  0.73403649     0.18600
C1693       C  0.61185564  0.25680382  0.75103581     0.15800
C1694       C  0.61209489  0.27571354  0.75281193    -0.18700
C1695       C  0.60787272  0.24569208  0.76600779    -0.20500
C1696       C  0.60853126  0.22684686  0.76422723    -0.13000
C1697       C  0.61358623  0.21890585  0.74760310     0.03600
C1698       C  0.61719313  0.22996637  0.73252047    -0.25200
H1699       H  0.62218781  0.28697458  0.70889983     0.08700
H1700       H  0.62244273  0.25396954  0.70573963     0.12300
H1701       H  0.60951669  0.28188687  0.76594078     0.12200
H1702       H  0.60447289  0.25155183  0.77908090     0.12000
H1703       H  0.60572645  0.21848094  0.77599803     0.12500
H1704       H  0.62090434  0.22386289  0.71961929     0.14500
C1705       C  0.72260191  0.15422478  0.67202226    -0.05500
C1706       C  0.72558682  0.16501996  0.68745963    -0.05500
C1707       C  0.71238497  0.16617626  0.70108248    -0.23600
C1708       C  0.69588350  0.15668258  0.69936975     0.18600
C1709       C  0.69311408  0.14496538  0.68437362     0.15800
C1710       C  0.70665983  0.14361212  0.67083595    -0.18700
C1711       C  0.67645926  0.13558457  0.68274554    -0.20500
C1712       C  0.66245968  0.13838991  0.69546994    -0.13000
C1713       C  0.66493548  0.15061418  0.70992115     0.03600
C1714       C  0.68182465  0.15938409  0.71203086    -0.25200
H1715       H  0.73784447  0.17325131  0.68861436     0.08700
H1716       H  0.71474955  0.17508161  0.71255123     0.12300
H1717       H  0.70422784  0.13539299  0.65887426     0.12200
H1718       H  0.67408032  0.12652895  0.67141158     0.12000
H1719       H  0.64948226  0.13144936  0.69367075     0.12500
H1720       H  0.68384548  0.16871809  0.72322761     0.14500
C1721       C  0.70381155  0.36320961  0.65506749    -0.05500
C1722       C  0.70705570  0.37391594  0.67055390    -0.05500
C1723       C  0.69349674  0.37637965  0.68374011    -0.23600
C1724       C  0.67635689  0.36802362  0.68187677     0.18600
C1725       C  0.67227256  0.35830406  0.66579444     0.15800
C1726       C  0.68600622  0.35611616  0.65228885    -0.18700
C1727       C  0.65501621  0.34988561  0.66422907    -0.20500
C1728       C  0.64274197  0.34975789  0.67902454    -0.13000
C1729       C  0.64737314  0.35826242  0.69555608     0.03600
C1730       C  0.66383902  0.36815888  0.69645230    -0.25200
H1731       H  0.72052249  0.37967220  0.67298544     0.08700
H1732       H  0.69678962  0.38402519  0.69589262     0.12300
H1733       H  0.68330956  0.34776895  0.64046636     0.12200
H1734       H  0.65146095  0.34250850  0.65199034     0.12000
H1735       H  0.63014042  0.34207407  0.67789716     0.12500
H1736       H  0.66761584  0.37484418  0.70904610     0.14500
C1737       C  0.75209086  0.21964063  0.61969915    -0.05500
C1738       C  0.76466702  0.22800582  0.60797725    -0.05500
C1739       C  0.76523784  0.24681274  0.60655628    -0.23600
C1740       C  0.75311566  0.25754889  0.61674680     0.18600
C1741       C  0.74021153  0.24925998  0.62841395     0.15800
C1742       C  0.73983257  0.23034452  0.62988815    -0.18700
C1743       C  0.72802837  0.26004814  0.63851373    -0.20500
C1744       C  0.72883134  0.27889476  0.63725895    -0.13000
C1745       C  0.74185336  0.28722617  0.62596502     0.03600
C1746       C  0.75386223  0.27644800  0.61561094    -0.25200
H1747       H  0.77428337  0.21999164  0.60007760     0.08700
H1748       H  0.77520063  0.25295281  0.59756989     0.12300
H1749       H  0.73007756  0.22399102  0.63895029     0.12200
H1750       H  0.71804423  0.25393749  0.64749086     0.12000
H1751       H  0.71951922  0.28696905  0.64544368     0.12500
H1752       H  0.76397620  0.28275107  0.60689853     0.14500
C1753       C  0.82354458  0.37608893  0.53537718    -0.05500
C1754       C  0.82455049  0.38863336  0.54972120    -0.05500
C1755       C  0.81179904  0.38820607  0.56398566    -0.23600
C1756       C  0.79761512  0.37537335  0.56403906     0.18600
C1757       C  0.79596018  0.36324633  0.54923807     0.15800
C1758       C  0.80901257  0.36356888  0.53509593    -0.18700
C1759       C  0.78160131  0.35062531  0.54912146    -0.20500
C1760       C  0.76959806  0.34937790  0.56394033    -0.13000
C1761       C  0.77176271  0.36062121  0.57923747     0.03600
C1762       C  0.78552960  0.37397837  0.57895029    -0.25200
H1763       H  0.83561241  0.39840013  0.55023034     0.08700
H1764       H  0.81325042  0.39767505  0.57514280     0.12300
H1765       H  0.80802145  0.35393218  0.52402139     0.12200
H1766       H  0.78001306  0.34132374  0.53784190     0.12000
H1767       H  0.75921712  0.33890143  0.56383940     0.12500
H1768       H  0.78739080  0.38269979  0.59066150     0.14500
C1769       C  0.85368589  0.27782594  0.41590215    -0.05500
C1770       C  0.86996377  0.27572994  0.42606270    -0.05500
C1771       C  0.87462667  0.28826946  0.43980205    -0.23600
C1772       C  0.86311379  0.30317884  0.44360842     0.18600
C1773       C  0.84664217  0.30512107  0.43357235     0.15800
C1774       C  0.84206724  0.29253723  0.41998364    -0.18700
C1775       C  0.83497441  0.31978760  0.43704459    -0.20500
C1776       C  0.83955850  0.33260980  0.45018034    -0.13000
C1777       C  0.85593578  0.33122302  0.46029525     0.03600
C1778       C  0.86771703  0.31628946  0.45701235    -0.25200
H1779       H  0.87918922  0.26455686  0.42322708     0.08700
H1780       H  0.88731933  0.28641449  0.44729633     0.12300
H1781       H  0.82944250  0.29440701  0.41235234     0.12200
H1782       H  0.82229262  0.32144825  0.42947173     0.12000
H1783       H  0.83018203  0.34382222  0.45231232     0.12500
H1784       H  0.88038261  0.31497844  0.46466553     0.14500
C1785       C  0.78147632  0.24525967  0.37703519    -0.05500
C1786       C  0.77245326  0.23602671  0.39110288    -0.05500
C1787       C  0.75333886  0.23742870  0.39304529    -0.23600
C1788       C  0.74299507  0.24804242  0.38089226     0.18600
C1789       C  0.75202456  0.25717357  0.36658316     0.15800
C1790       C  0.77111671  0.25573896  0.36478058    -0.18700
C1791       C  0.74181143  0.26746331  0.35413225    -0.20500
C1792       C  0.72271472  0.26826925  0.35548650    -0.13000
C1793       C  0.71356569  0.25920740  0.36955171     0.03600
C1794       C  0.72376986  0.24938233  0.38248564    -0.25200
H1795       H  0.78018971  0.22787169  0.40068814     0.08700
H1796       H  0.74666200  0.23022832  0.40401184     0.12300
H1797       H  0.77791339  0.26288404  0.35383488     0.12200
H1798       H  0.74854354  0.27452249  0.34310106     0.12000
H1799       H  0.71501068  0.27578758  0.34535508     0.12500
H1800       H  0.71669644  0.24209780  0.39316104     0.14500
C1801       C  0.57584120  0.12962464  0.52771448    -0.05500
C1802       C  0.56298285  0.14385296  0.52684488    -0.05500
C1803       C  0.54756929  0.14410358  0.53826229    -0.23600
C1804       C  0.54471813  0.13016251  0.55089343     0.18600
C1805       C  0.55706109  0.11536400  0.55133641     0.15800
C1806       C  0.57245721  0.11512309  0.53967578    -0.18700
C1807       C  0.55420582  0.10142625  0.56397491    -0.20500
C1808       C  0.53988490  0.10258679  0.57666717    -0.13000
C1809       C  0.52800794  0.11762336  0.57691970     0.03600
C1810       C  0.53021396  0.13114162  0.56358266    -0.25200
H1811       H  0.56511876  0.15510438  0.51766779     0.08700
H1812       H  0.53819219  0.15549201  0.53759775     0.12300
H1813       H  0.58215636  0.10399130  0.54041247     0.12200
H1814       H  0.56342516  0.08990423  0.56445256     0.12000
H1815       H  0.53847178  0.09195281  0.58669301     0.12500
H1816       H  0.52114312  0.14279490  0.56355480     0.14500
C1817       C  0.66363090  0.14305371  0.53995191    -0.05500
C1818       C  0.65989008  0.15706844  0.55238366    -0.05500
C1819       C  0.67247399  0.16162152  0.56604925    -0.23600
C1820       C  0.68926781  0.15237230  0.56760446     0.18600
C1821       C  0.69338577  0.13824401  0.55530673     0.15800
C1822       C  0.68048538  0.13357719  0.54158433    -0.18700
C1823       C  0.71037591  0.12917707  0.55697415    -0.20500
C1824       C  0.72305914  0.13404180  0.57064308    -0.13000
C1825       C  0.71902175  0.14804372  0.58298002     0.03600
C1826       C  0.70199208  0.15711265  0.58126714    -0.25200
H1827       H  0.64712276  0.16459916  0.55154884     0.08700
H1828       H  0.66908685  0.17248983  0.57536761     0.12300
H1829       H  0.68365146  0.12279341  0.53208646     0.12200
H1830       H  0.71386938  0.11830943  0.54769315     0.12000
H1831       H  0.73598187  0.12679439  0.57161712     0.12500
H1832       H  0.69857464  0.16795407  0.59061617     0.14500
C1833       C  0.64418004  0.22337007  0.41394271    -0.05500
C1834       C  0.62915512  0.22746214  0.42523614    -0.05500
C1835       C  0.62432920  0.21588793  0.43960550    -0.23600
C1836       C  0.63448670  0.20001832  0.44298252     0.18600
C1837       C  0.64981127  0.19600256  0.43187230     0.15800
C1838       C  0.65451150  0.20762042  0.41749370    -0.18700
C1839       C  0.66012738  0.18030542  0.43516897    -0.20500
C1840       C  0.65524791  0.16855491  0.44921151    -0.13000
C1841       C  0.63987937  0.17211366  0.46023728     0.03600
C1842       C  0.62954318  0.18799596  0.45709075    -0.25200
H1843       H  0.62094888  0.23946558  0.42277198     0.08700
H1844       H  0.61256069  0.21926554  0.44796587     0.12300
H1845       H  0.66615682  0.20427098  0.40893535     0.12200
H1846       H  0.67192388  0.17703751  0.42680105     0.12000
H1847       H  0.66341308  0.15644532  0.45125915     0.12500
H1848       H  0.61767054  0.19091934  0.46548440     0.14500
C1849       C  0.78106087  0.25732205  0.12166715    -0.05500
C1850       C  0.77191087  0.27387797  0.11909296    -0.05500
C1851       C  0.75268355  0.27473244  0.11950980    -0.23600
C1852       C  0.74231549  0.25897383  0.12222079     0.18600
C1853       C  0.75142037  0.24220762  0.12445786     0.15800
C1854       C  0.77069210  0.24153154  0.12437011    -0.18700
C1855       C  0.74109907  0.22635641  0.12666585    -0.20500
C1856       C  0.72189670  0.22708598  0.12660938    -0.13000
C1857       C  0.71275171  0.24370052  0.12482641     0.03600
C1858       C  0.72301697  0.25965148  0.12272387    -0.25200
H1859       H  0.77963526  0.28620725  0.11701390     0.08700
H1860       H  0.74593884  0.28767331  0.11768762     0.12300
H1861       H  0.77761280  0.22867334  0.12625572     0.12200
H1862       H  0.74786977  0.21340775  0.12836566     0.12000
H1863       H  0.71416715  0.21471317  0.12843463     0.12500
H1864       H  0.71597324  0.27250411  0.12131174     0.14500
C1865       C  0.85538030  0.17650607  0.03141217    -0.05500
C1866       C  0.83696341  0.18048415  0.03559086    -0.05500
C1867       C  0.83238060  0.19525997  0.04649408    -0.23600
C1868       C  0.84612608  0.20636189  0.05372393     0.18600
C1869       C  0.86475690  0.20284197  0.04957534     0.15800
C1870       C  0.86930611  0.18798675  0.03823088    -0.18700
C1871       C  0.87839570  0.21387444  0.05742383    -0.20500
C1872       C  0.87361996  0.22747590  0.07000505    -0.13000
C1873       C  0.85509977  0.23061442  0.07453988     0.03600
C1874       C  0.84145207  0.22038669  0.06574427    -0.25200
H1875       H  0.82596225  0.17202516  0.03049250     0.08700
H1876       H  0.81804258  0.19776433  0.04960286     0.12300
H1877       H  0.88356964  0.18510016  0.03514305     0.12200
H1878       H  0.89277371  0.21147958  0.05444817     0.12000
H1879       H  0.88441693  0.23504912  0.07668604     0.12500
H1880       H  0.82712197  0.22247221  0.06921669     0.14500
C1881       C  0.58475579  0.37735574  0.96103053    -0.05500
C1882       C  0.58624255  0.39253223  0.94958571    -0.05500
C1883       C  0.57340353  0.39579583  0.93577448    -0.23600
C1884       C  0.55864653  0.38397873  0.93300778     0.18600
C1885       C  0.55662801  0.36885226  0.94461009     0.15800
C1886       C  0.56969672  0.36560041  0.95855832    -0.18700
C1887       C  0.54170769  0.35715300  0.94183860    -0.20500
C1888       C  0.52917509  0.36023968  0.92761646    -0.13000
C1889       C  0.53128478  0.37502731  0.91574071     0.03600
C1890       C  0.54605933  0.38693093  0.91866119    -0.25200
H1891       H  0.59760037  0.40185076  0.95112267     0.08700
H1892       H  0.57515966  0.40750464  0.92709646     0.12300
H1893       H  0.56831096  0.35384488  0.96723788     0.12200
H1894       H  0.53982217  0.34549847  0.95055400     0.12000
H1895       H  0.51798934  0.35079978  0.92568684     0.12500
H1896       H  0.54789480  0.39838215  0.90964781     0.14500
C1897       C  0.63777661  0.32823473  0.03755684    -0.05500
C1898       C  0.65422898  0.33003464  0.04745699    -0.05500
C1899       C  0.65883687  0.31788577  0.06121783    -0.23600
C1900       C  0.64716968  0.30347462  0.06539236     0.18600
C1901       C  0.63058811  0.30123235  0.05562217     0.15800
C1902       C  0.62589444  0.31373409  0.04174140    -0.18700
C1903       C  0.61913335  0.28653562  0.06001188    -0.20500
C1904       C  0.62405108  0.27436693  0.07396633    -0.13000
C1905       C  0.64047116  0.27672066  0.08379679     0.03600
C1906       C  0.65192478  0.29134005  0.07928917    -0.25200
H1907       H  0.66362482  0.34101647  0.04463425     0.08700
H1908       H  0.67158882  0.31977340  0.06860093     0.12300
H1909       H  0.61318659  0.31214682  0.03421642     0.12200
H1910       H  0.60635439  0.28450113  0.05272538     0.12000
H1911       H  0.61491577  0.26330467  0.07723756     0.12500
H1912       H  0.66463172  0.29339916  0.08671622     0.14500
C1913       C  0.69337541  0.15503480  0.84235797    -0.05500
C1914       C  0.68075180  0.16941005  0.84389035    -0.05500
C1915       C  0.66574118  0.17084441  0.83203585    -0.23600
C1916       C  0.66291987  0.15786437  0.81839783     0.18600
C1917       C  0.67498122  0.14287907  0.81718762     0.15800
C1918       C  0.69017386  0.14158080  0.82911880    -0.18700
C1919       C  0.67204858  0.12986500  0.80356780    -0.20500
C1920       C  0.65797554  0.13216843  0.79071686    -0.13000
C1921       C  0.64656299  0.14754561  0.79116279     0.03600
C1922       C  0.64877772  0.16007564  0.80544893    -0.25200
H1923       H  0.68293401  0.18006147  0.85378522     0.08700
H1924       H  0.65663998  0.18240993  0.83321013     0.12300
H1925       H  0.69985492  0.13050740  0.82764338     0.12200
H1926       H  0.68105522  0.11822089  0.80244758     0.12000
H1927       H  0.65667833  0.12237672  0.77981867     0.12500
H1928       H  0.64016657  0.17205401  0.80592379     0.14500
C1929       C  0.77631628  0.14502813  0.90974934    -0.05500
C1930       C  0.77042782  0.13249579  0.92287899    -0.05500
C1931       C  0.78192213  0.12770559  0.93759175    -0.23600
C1932       C  0.79950033  0.13545086  0.93952805     0.18600
C1933       C  0.80545278  0.14801308  0.92632751     0.15800
C1934       C  0.79396821  0.15260095  0.91162204    -0.18700
C1935       C  0.82278781  0.15600808  0.92805940    -0.20500
C1936       C  0.83413530  0.15180388  0.94279678    -0.13000
C1937       C  0.82860064  0.13939304  0.95619645     0.03600
C1938       C  0.81118492  0.13109180  0.95440495    -0.25200
H1939       H  0.75693310  0.12643747  0.92179688     0.08700
H1940       H  0.77701034  0.11804967  0.94751333     0.12300
H1941       H  0.79877779  0.16230258  0.90168219     0.12200
H1942       H  0.82755371  0.16565901  0.91805493     0.12000
H1943       H  0.84739907  0.15837512  0.94368788     0.12500
H1944       H  0.80667193  0.12153368  0.96460511     0.14500
C1945       C  0.71505051  0.35308249  0.82965664    -0.05500
C1946       C  0.70068189  0.36547471  0.83257330    -0.05500
C1947       C  0.68628899  0.36701293  0.81997103    -0.23600
C1948       C  0.68605118  0.35613585  0.80428805     0.18600
C1949       C  0.70073667  0.34399013  0.80105695     0.15800
C1950       C  0.71513801  0.34263030  0.81367069    -0.18700
C1951       C  0.70051572  0.33294425  0.78555229    -0.20500
C1952       C  0.68556570  0.33344936  0.77364935    -0.13000
C1953       C  0.67068592  0.34516011  0.77689432     0.03600
C1954       C  0.67116636  0.35677693  0.79206489    -0.25200
H1955       H  0.70030892  0.37360395  0.84484747     0.08700
H1956       H  0.67516980  0.37639611  0.82268212     0.12300
H1957       H  0.72616435  0.33303240  0.81128078     0.12200
H1958       H  0.71168673  0.32360542  0.78286604     0.12000
H1959       H  0.68552300  0.32444556  0.76200481     0.12500
H1960       H  0.65971434  0.36579979  0.79470243     0.14500
C1961       C  0.72353124  0.35156001  0.91697405    -0.05500
C1962       C  0.72756217  0.36514811  0.92975781    -0.05500
C1963       C  0.71515260  0.36910242  0.94391822    -0.23600
C1964       C  0.69852576  0.35951066  0.94551100     0.18600
C1965       C  0.69480603  0.34538991  0.93310287     0.15800
C1966       C  0.70726056  0.34152509  0.91906756    -0.18700
C1967       C  0.67845001  0.33554558  0.93460214    -0.20500
C1968       C  0.66559632  0.33987173  0.94800529    -0.13000
C1969       C  0.66871536  0.35420164  0.96015704     0.03600
C1970       C  0.68538332  0.36390839  0.95897913    -0.25200
H1971       H  0.74001433  0.37303690  0.92850060     0.08700
H1972       H  0.71837204  0.37988359  0.95336745     0.12300
H1973       H  0.70400620  0.33088249  0.90944520     0.12200
H1974       H  0.67546831  0.32461913  0.92522672     0.12000
H1975       H  0.65297321  0.33215905  0.94863420     0.12500
H1976       H  0.68802588  0.37490650  0.96836302     0.14500
C1977       C  0.75529158  0.28575775  0.86644019    -0.05500
C1978       C  0.75710670  0.27790449  0.84911415    -0.05500
C1979       C  0.75486110  0.25937307  0.84666916    -0.23600
C1980       C  0.75069835  0.24830033  0.86151971     0.18600
C1981       C  0.74883867  0.25593862  0.87907977     0.15800
C1982       C  0.75123359  0.27468528  0.88147177    -0.18700
C1983       C  0.74457831  0.24465497  0.89384802    -0.20500
C1984       C  0.74258811  0.22597640  0.89125651    -0.13000
C1985       C  0.74478850  0.21833337  0.87387176     0.03600
C1986       C  0.74858378  0.22965735  0.85903794    -0.25200
H1987       H  0.76010029  0.28616877  0.83731539     0.08700
H1988       H  0.75631877  0.25371559  0.83314315     0.12300
H1989       H  0.74955606  0.28066410  0.89483493     0.12200
H1990       H  0.74300415  0.25022870  0.90739136     0.12000
H1991       H  0.73966298  0.21747441  0.90289376     0.12500
H1992       H  0.75024348  0.22392448  0.84555663     0.14500
C1993       C  0.16743926  0.22929282  0.84028270    -0.05500
C1994       C  0.17749860  0.22822375  0.82402774    -0.05500
C1995       C  0.19192142  0.21590312  0.82230156    -0.23600
C1996       C  0.19636131  0.20434453  0.83675600     0.18600
C1997       C  0.18666387  0.20566144  0.85336902     0.15800
C1998       C  0.17234545  0.21826689  0.85508685    -0.18700
C1999       C  0.19100611  0.19387923  0.86771130    -0.20500
C2000       C  0.20428444  0.18038754  0.86531182    -0.13000
C2001       C  0.21347724  0.17862535  0.84861145     0.03600
C2002       C  0.20983236  0.19099898  0.83457740    -0.25200
H2003       H  0.17393891  0.23663610  0.81247356     0.08700
H2004       H  0.19925212  0.21506315  0.80950256     0.12300
H2005       H  0.16459698  0.21899300  0.86765444     0.12200
H2006       H  0.18375713  0.19474049  0.88054969     0.12000
H2007       H  0.20696425  0.17099926  0.87632160     0.12500
H2008       H  0.21689770  0.18976157  0.82165126     0.14500
C2009       C  0.14844968  0.30502809  0.86061176    -0.05500
C2010       C  0.16230187  0.30176784  0.87357690    -0.05500
C2011       C  0.17642915  0.31425019  0.87640110    -0.23600
C2012       C  0.17696511  0.33038855  0.86641337     0.18600
C2013       C  0.16268161  0.33428864  0.85393639     0.15800
C2014       C  0.14855004  0.32154573  0.85102628    -0.18700
C2015       C  0.16324439  0.35052476  0.84404754    -0.20500
C2016       C  0.17827652  0.36224125  0.84573327    -0.13000
C2017       C  0.19309288  0.35794727  0.85727536     0.03600
C2018       C  0.19200776  0.34223404  0.86805061    -0.25200
H2019       H  0.16271891  0.28911098  0.88098393     0.08700
H2020       H  0.18723814  0.31102311  0.88603327     0.12300
H2021       H  0.13806553  0.32418121  0.84087160     0.12200
H2022       H  0.15239771  0.35383819  0.83448561     0.12000
H2023       H  0.17880973  0.37413430  0.83715378     0.12500
H2024       H  0.20336012  0.33866812  0.87693124     0.14500
C2025       C  0.14501051  0.20303332  0.64374028    -0.05500
C2026       C  0.15778477  0.20592743  0.62970184    -0.05500
C2027       C  0.17211938  0.19357219  0.62657824    -0.23600
C2028       C  0.17389589  0.17796681  0.63734695     0.18600
C2029       C  0.16030199  0.17420993  0.65052819     0.15800
C2030       C  0.14598677  0.18675181  0.65366657    -0.18700
C2031       C  0.16186814  0.15848242  0.66109920    -0.20500
C2032       C  0.17734674  0.14726373  0.65954854    -0.13000
C2033       C  0.19167230  0.15151582  0.64746315     0.03600
C2034       C  0.18950759  0.16661854  0.63589449    -0.25200
H2035       H  0.15744148  0.21836049  0.62191775     0.08700
H2036       H  0.18227446  0.19663653  0.61627756     0.12300
H2037       H  0.13624635  0.18432697  0.66453098     0.12200
H2038       H  0.15150058  0.15525701  0.67113994     0.12000
H2039       H  0.17857716  0.13577103  0.66861050     0.12500
H2040       H  0.20039062  0.17010228  0.62649161     0.14500
C2041       C  0.21440641  0.32764614  0.65726350    -0.05500
C2042       C  0.20386450  0.32675581  0.64127243    -0.05500
C2043       C  0.18986239  0.31403237  0.63951759    -0.23600
C2044       C  0.18608062  0.30209161  0.65381248     0.18600
C2045       C  0.19686896  0.30257922  0.66982784     0.15800
C2046       C  0.21107747  0.31527692  0.67140013    -0.18700
C2047       C  0.19290073  0.29070978  0.68417607    -0.20500
C2048       C  0.17805353  0.27881617  0.68283287    -0.13000
C2049       C  0.16703461  0.27857955  0.66711142     0.03600
C2050       C  0.17133384  0.29004264  0.65252536    -0.25200
H2051       H  0.20622184  0.33615322  0.63021089     0.08700
H2052       H  0.18173914  0.31380013  0.62715984     0.12300
H2053       H  0.21910674  0.31591288  0.68381069     0.12200
H2054       H  0.20101697  0.29088366  0.69653695     0.12000
H2055       H  0.17494528  0.27008875  0.69425072     0.12500
H2056       H  0.16290998  0.28994286  0.64035222     0.14500
C2057       C  0.10880317  0.26149344  0.78737821    -0.05500
C2058       C  0.11022144  0.27811037  0.77828745    -0.05500
C2059       C  0.11008182  0.27876496  0.75931328    -0.23600
C2060       C  0.10830654  0.26280833  0.74916731     0.18600
C2061       C  0.10619931  0.24606539  0.75818873     0.15800
C2062       C  0.10659943  0.24549809  0.77726726    -0.18700
C2063       C  0.10416982  0.23015703  0.74795282    -0.20500
C2064       C  0.10480013  0.23079114  0.72894167    -0.13000
C2065       C  0.10764272  0.24729515  0.71996751     0.03600
C2066       C  0.10907211  0.26329628  0.73015085    -0.25200
H2067       H  0.11211001  0.29055584  0.78585626     0.08700
H2068       H  0.11167015  0.29168627  0.75258706     0.12300
H2069       H  0.10552266  0.23263387  0.78422276     0.12200
H2070       H  0.10245436  0.21723235  0.75463668     0.12000
H2071       H  0.10374346  0.21830110  0.72129092     0.12500
H2072       H  0.11118486  0.27608841  0.72329355     0.14500
C2073       C  0.96506745  0.13151916  0.92257513    -0.05500
C2074       C  0.96510354  0.14590638  0.93507798    -0.05500
C2075       C  0.95193850  0.14692052  0.94890709    -0.23600
C2076       C  0.93833127  0.13361809  0.95047563     0.18600
C2077       C  0.93840079  0.11877276  0.93833819     0.15800
C2078       C  0.95182589  0.11775237  0.92451895    -0.18700
C2079       C  0.92471657  0.10550744  0.93994338    -0.20500
C2080       C  0.91081878  0.10723473  0.95305154    -0.13000
C2081       C  0.91032077  0.12222287  0.96485192     0.03600
C2082       C  0.92437446  0.13521262  0.96365314    -0.25200
H2083       H  0.97512865  0.15664780  0.93393315     0.08700
H2084       H  0.95215279  0.15835790  0.95813200     0.12300
H2085       H  0.95159497  0.10659004  0.91496334     0.12200
H2086       H  0.92454016  0.09399072  0.93083041     0.12000
H2087       H  0.90020414  0.09701866  0.95368397     0.12500
H2088       H  0.92420619  0.14681694  0.97267322     0.14500
C2089       C  0.08193343  0.03883913  0.87676074    -0.05500
C2090       C  0.08189410  0.04871997  0.89313651    -0.05500
C2091       C  0.06881734  0.06233426  0.89628197    -0.23600
C2092       C  0.05554090  0.06653019  0.88303914     0.18600
C2093       C  0.05515519  0.05648541  0.86666116     0.15800
C2094       C  0.06824920  0.04264615  0.86367274    -0.18700
C2095       C  0.04199366  0.06081639  0.85334050    -0.20500
C2096       C  0.02983576  0.07535279  0.85588925    -0.13000
C2097       C  0.03037084  0.08575929  0.87190243     0.03600
C2098       C  0.04303727  0.08094786  0.88564529    -0.25200
H2099       H  0.09218597  0.04608798  0.90347349     0.08700
H2100       H  0.06933793  0.06984093  0.90894367     0.12300
H2101       H  0.06807693  0.03517924  0.85097112     0.12200
H2102       H  0.04140060  0.05324128  0.84072277     0.12000
H2103       H  0.02019007  0.07866568  0.84514392     0.12500
H2104       H  0.04364685  0.08883962  0.89806976     0.14500
C2105       C  0.03735042  0.17552827  0.87814996    -0.05500
C2106       C  0.05541317  0.17177469  0.88389737    -0.05500
C2107       C  0.06921388  0.18481338  0.88246437    -0.23600
C2108       C  0.06529637  0.20190019  0.87512735     0.18600
C2109       C  0.04707305  0.20620864  0.87000739     0.15800
C2110       C  0.03315853  0.19301837  0.87165439    -0.18700
C2111       C  0.04329473  0.22339606  0.86267589    -0.20500
C2112       C  0.05755549  0.23579205  0.85959147    -0.13000
C2113       C  0.07583553  0.23123962  0.86379761     0.03600
C2114       C  0.07947377  0.21442001  0.87207916    -0.25200
H2115       H  0.05901233  0.15852928  0.88911066     0.08700
H2116       H  0.08308048  0.18133099  0.88658708     0.12300
H2117       H  0.01928633  0.19613727  0.86725233     0.12200
H2118       H  0.02941262  0.22701846  0.85874374     0.12000
H2119       H  0.05439911  0.24859059  0.85311895     0.12500
H2120       H  0.09350533  0.21072853  0.87543183     0.14500
C2121       C  0.03111742  0.42027461  0.62972046    -0.05500
C2122       C  0.03223703  0.43043748  0.64588343    -0.05500
C2123       C  0.04558239  0.44390835  0.64802095    -0.23600
C2124       C  0.05826559  0.44743008  0.63409617     0.18600
C2125       C  0.05713238  0.43750400  0.61766921     0.15800
C2126       C  0.04348967  0.42412853  0.61551548    -0.18700
C2127       C  0.06995046  0.44084506  0.60383301    -0.20500
C2128       C  0.08390588  0.45363142  0.60631852    -0.13000
C2129       C  0.08530787  0.46353864  0.62261479     0.03600
C2130       C  0.07224823  0.46045199  0.63642847    -0.25200
H2131       H  0.02291902  0.42778221  0.65704337     0.08700
H2132       H  0.04618146  0.45135707  0.66071388     0.12300
H2133       H  0.04288102  0.41634959  0.60301476     0.12200
H2134       H  0.06934036  0.43338653  0.59114466     0.12000
H2135       H  0.09370583  0.45571961  0.59544345     0.12500
H2136       H  0.07316246  0.46792049  0.64909776     0.14500
C2137       C  0.95832612  0.36882020  0.58383808    -0.05500
C2138       C  0.95019851  0.35180765  0.58094693    -0.05500
C2139       C  0.93625241  0.34951202  0.56793192    -0.23600
C2140       C  0.93014276  0.36416418  0.55735906     0.18600
C2141       C  0.93834968  0.38129525  0.55994378     0.15800
C2142       C  0.95231856  0.38353032  0.57314625    -0.18700
C2143       C  0.93232474  0.39595213  0.54937227    -0.20500
C2144       C  0.91831703  0.39372772  0.53646487    -0.13000
C2145       C  0.90992497  0.37680618  0.53373321     0.03600
C2146       C  0.91596244  0.36201660  0.54431746    -0.25200
H2147       H  0.95443963  0.34025624  0.58899525     0.08700
H2148       H  0.93018607  0.33625997  0.56619962     0.12300
H2149       H  0.95839109  0.39674122  0.57519624     0.12200
H2150       H  0.93840585  0.40919547  0.55112439     0.12000
H2151       H  0.91397203  0.40538250  0.52862341     0.12500
H2152       H  0.90961076  0.34890522  0.54247072     0.14500
C2153       C  0.03453853  0.33372411  0.63049129    -0.05500
C2154       C  0.05226784  0.33669488  0.62355431    -0.05500
C2155       C  0.06625521  0.32392883  0.62600298    -0.23600
C2156       C  0.06286276  0.30781284  0.63543078     0.18600
C2157       C  0.04508656  0.30442022  0.64233863     0.15800
C2158       C  0.03099850  0.31742533  0.63985761    -0.18700
C2159       C  0.04187477  0.28818830  0.65178502    -0.20500
C2160       C  0.05617571  0.27563671  0.65454550    -0.13000
C2161       C  0.07397223  0.27908448  0.64797362     0.03600
C2162       C  0.07710025  0.29520973  0.63829843    -0.25200
H2163       H  0.05543897  0.34909543  0.61638762     0.08700
H2164       H  0.07980489  0.32674824  0.62063355     0.12300
H2165       H  0.01742899  0.31496521  0.64535589     0.12200
H2166       H  0.02837841  0.28530196  0.65723256     0.12000
H2167       H  0.05343727  0.26346424  0.66225314     0.12500
H2168       H  0.09076316  0.29813512  0.63325135     0.14500
C2169       C  0.83939863  0.35026223  0.71609059    -0.05500
C2170       C  0.83283898  0.36739322  0.71089458    -0.05500
C2171       C  0.81972929  0.36913866  0.69704644    -0.23600
C2172       C  0.81296184  0.35376603  0.68809971     0.18600
C2173       C  0.81968608  0.33648238  0.69304132     0.15800
C2174       C  0.83280334  0.33483456  0.70700887    -0.18700
C2175       C  0.81308776  0.32111079  0.68400821    -0.20500
C2176       C  0.79971792  0.32279855  0.67044166    -0.13000
C2177       C  0.79261964  0.33986164  0.66566891     0.03600
C2178       C  0.79945131  0.35535580  0.67445613    -0.25200
H2179       H  0.83779693  0.37948495  0.71761505     0.08700
H2180       H  0.81481678  0.38249452  0.69340884     0.12300
H2181       H  0.83785039  0.32156203  0.71080613     0.12200
H2182       H  0.81813376  0.30777410  0.68754443     0.12000
H2183       H  0.79470588  0.31065472  0.66386079     0.12500
H2184       H  0.79412663  0.36857553  0.67084399     0.14500
C2185       C  0.85828272  0.35879826  0.80756552    -0.05500
C2186       C  0.86169103  0.34632461  0.82163657    -0.05500
C2187       C  0.84927273  0.34447451  0.83615558    -0.23600
C2188       C  0.83327465  0.35517721  0.83693759     0.18600
C2189       C  0.83070609  0.36888931  0.82376718     0.15800
C2190       C  0.84318693  0.37062180  0.80923380    -0.18700
C2191       C  0.81499019  0.37984842  0.82458045    -0.20500
C2192       C  0.80125203  0.37642025  0.83738296    -0.13000
C2193       C  0.80278165  0.36189073  0.84964214     0.03600
C2194       C  0.81926024  0.35171002  0.84982973    -0.25200
H2195       H  0.87314735  0.33698340  0.82066325     0.08700
H2196       H  0.85167815  0.33402663  0.84620369     0.12300
H2197       H  0.84041036  0.38032090  0.79851339     0.12200
H2198       H  0.81288948  0.39055686  0.81473439     0.12000
H2199       H  0.78883129  0.38453619  0.83690382     0.12500
H2200       H  0.82068837  0.34046121  0.85916074     0.14500
C2201       C  0.92542160  0.36395654  0.72968128    -0.05500
C2202       C  0.94226449  0.35469328  0.73119232    -0.05500
C2203       C  0.95592187  0.35670626  0.71789180    -0.23600
C2204       C  0.95289655  0.36785261  0.70269406     0.18600
C2205       C  0.93634918  0.37784407  0.70147449     0.15800
C2206       C  0.92285354  0.37599309  0.71503744    -0.18700
C2207       C  0.93315578  0.38884116  0.68623892    -0.20500
C2208       C  0.94580495  0.38929088  0.67193286    -0.13000
C2209       C  0.96199349  0.37889730  0.67261212     0.03600
C2210       C  0.96571169  0.36857087  0.68832700    -0.25200
H2211       H  0.94456851  0.34526271  0.74224223     0.08700
H2212       H  0.96853859  0.34898467  0.71912366     0.12300
H2213       H  0.90990336  0.38314557  0.71360631     0.12200
H2214       H  0.92058801  0.39665849  0.68511310     0.12000
H2215       H  0.94268097  0.39746752  0.66009269     0.12500
H2216       H  0.97817174  0.36053619  0.68905694     0.14500
C2217       C  0.85350032  0.15155610  0.69733497    -0.05500
C2218       C  0.84343386  0.13535040  0.69712314    -0.05500
C2219       C  0.82978883  0.13233753  0.68395112    -0.23600
C2220       C  0.82597367  0.14543139  0.67061513     0.18600
C2221       C  0.83697309  0.16114278  0.66984036     0.15800
C2222       C  0.85064392  0.16410998  0.68317000    -0.18700
C2223       C  0.83335935  0.17414189  0.65640047    -0.20500
C2224       C  0.81826950  0.17223249  0.64468381    -0.13000
C2225       C  0.80637711  0.15729933  0.64608607     0.03600
C2226       C  0.81074590  0.14359442  0.65874741    -0.25200
H2227       H  0.84526999  0.12548020  0.70786351     0.08700
H2228       H  0.82166374  0.12010788  0.68470182     0.12300
H2229       H  0.85830105  0.17665743  0.68312274     0.12200
H2230       H  0.84172174  0.18620015  0.65545517     0.12000
H2231       H  0.81533288  0.18301728  0.63513740     0.12500
H2232       H  0.80173513  0.13202686  0.66007957     0.14500
C2233       C  0.77937891  0.15221595  0.82230462    -0.05500
C2234       C  0.78990452  0.13628889  0.82139540    -0.05500
C2235       C  0.80386546  0.13451791  0.80840041    -0.23600
C2236       C  0.80747735  0.14871542  0.79624304     0.18600
C2237       C  0.79619153  0.16432254  0.79651929     0.15800
C2238       C  0.78217189  0.16588508  0.80940179    -0.18700
C2239       C  0.79968511  0.17860822  0.78456119    -0.20500
C2240       C  0.81496323  0.17799030  0.77321157    -0.13000
C2241       C  0.82687558  0.16301449  0.77346232     0.03600
C2242       C  0.82270634  0.14805501  0.78450444    -0.25200
H2243       H  0.78786800  0.12554984  0.83120929     0.08700
H2244       H  0.81225787  0.12241154  0.80832855     0.12300
H2245       H  0.77397099  0.17812904  0.80989714     0.12200
H2246       H  0.79105979  0.19056594  0.78452088     0.12000
H2247       H  0.81781158  0.18957563  0.76464608     0.12500
H2248       H  0.83181185  0.13645021  0.78472572     0.14500
C2249       C  0.92030818  0.14966447  0.77873040    -0.05500
C2250       C  0.93869821  0.15137049  0.77311883    -0.05500
C2251       C  0.95319612  0.14927536  0.78564504    -0.23600
C2252       C  0.94957727  0.14553526  0.80407081     0.18600
C2253       C  0.93111201  0.14355758  0.80969378     0.15800
C2254       C  0.91671693  0.14547504  0.79705475    -0.18700
C2255       C  0.92722233  0.14002167  0.82798795    -0.20500
C2256       C  0.94141547  0.13839914  0.84066171    -0.13000
C2257       C  0.95992442  0.14017304  0.83544834     0.03600
C2258       C  0.96395404  0.14382719  0.81700924    -0.25200
H2259       H  0.94185919  0.15477470  0.75913622     0.08700
H2260       H  0.96720975  0.15086627  0.78097694     0.12300
H2261       H  0.90263038  0.14425053  0.80165914     0.12200
H2262       H  0.91314960  0.13854625  0.83254222     0.12000
H2263       H  0.93781941  0.13563004  0.85468943     0.12500
H2264       H  0.97812451  0.14528689  0.81276670     0.14500
C2265       C  0.88846764  0.22188246  0.75146456    -0.05500
C2266       C  0.90294633  0.23015827  0.74201819    -0.05500
C2267       C  0.90503848  0.24899497  0.74244182    -0.23600
C2268       C  0.89250854  0.25982577  0.75212351     0.18600
C2269       C  0.87821710  0.25148464  0.76203460     0.15800
C2270       C  0.87642516  0.23264001  0.76179656    -0.18700
C2271       C  0.86555939  0.26212527  0.77162493    -0.20500
C2272       C  0.86672229  0.28091779  0.77106200    -0.13000
C2273       C  0.88055307  0.28945098  0.76092701     0.03600
C2274       C  0.89364082  0.27882218  0.75167090    -0.25200
H2275       H  0.91245077  0.22209141  0.73405701     0.08700
H2276       H  0.91613627  0.25510440  0.73484103     0.12300
H2277       H  0.86520541  0.22640826  0.76914361     0.12200
H2278       H  0.85455116  0.25592512  0.77928960     0.12000
H2279       H  0.85650207  0.28880604  0.77830920     0.12500
H2280       H  0.90437159  0.28528642  0.74384548     0.14500
C2281       C  0.85152262  0.33243252  0.28440825    -0.05500
C2282       C  0.86631105  0.33310607  0.29668964    -0.05500
C2283       C  0.86828783  0.31979399  0.31014827    -0.23600
C2284       C  0.85568633  0.30546096  0.31121192     0.18600
C2285       C  0.84120755  0.30446509  0.29837698     0.15800
C2286       C  0.83911416  0.31801449  0.28526210    -0.18700
C2287       C  0.82879051  0.29009014  0.29899412    -0.20500
C2288       C  0.83019699  0.27714388  0.31265525    -0.13000
C2289       C  0.84395236  0.27834687  0.32605310     0.03600
C2290       C  0.85697729  0.29235154  0.32506302    -0.25200
H2291       H  0.87602114  0.34418010  0.29618183     0.08700
H2292       H  0.87951285  0.32078513  0.31977154     0.12300
H2293       H  0.82780624  0.31734344  0.27567117     0.12200
H2294       H  0.81775593  0.28906500  0.28915025     0.12000
H2295       H  0.82003535  0.26646045  0.31306982     0.12500
H2296       H  0.86762039  0.29338945  0.33531866     0.14500
C2297       C  0.85396645  0.35212798  0.19444038    -0.05500
C2298       C  0.84126208  0.35572359  0.18043753    -0.05500
C2299       C  0.83958979  0.34393781  0.16555221    -0.23600
C2300       C  0.85056368  0.32830546  0.16443444     0.18600
C2301       C  0.86420150  0.32526576  0.17782678     0.15800
C2302       C  0.86592857  0.33725939  0.19259972    -0.18700
C2303       C  0.87509732  0.30962746  0.17690700    -0.20500
C2304       C  0.87178844  0.29655899  0.16354995    -0.13000
C2305       C  0.85765815  0.29890055  0.15068354     0.03600
C2306       C  0.84746355  0.31515934  0.15083086    -0.25200
H2307       H  0.83177516  0.36698242  0.18158200     0.08700
H2308       H  0.82911408  0.34658545  0.15540012     0.12300
H2309       H  0.87573015  0.33429319  0.20332662     0.12200
H2310       H  0.88565988  0.30711263  0.18700956     0.12000
H2311       H  0.87984346  0.28421111  0.16376590     0.12500
H2312       H  0.83644061  0.31710056  0.14108452     0.14500
C2313       C  0.64872323  0.27796371  0.17537155    -0.05500
C2314       C  0.65661252  0.27281909  0.19203602    -0.05500
C2315       C  0.65681444  0.28480719  0.20670706    -0.23600
C2316       C  0.64943452  0.30222723  0.20477184     0.18600
C2317       C  0.64084620  0.30726965  0.18824036     0.15800
C2318       C  0.64036060  0.29501107  0.17369888    -0.18700
C2319       C  0.63360360  0.32475373  0.18627343    -0.20500
C2320       C  0.63558578  0.33737685  0.20028441    -0.13000
C2321       C  0.64489396  0.33270048  0.21636875     0.03600
C2322       C  0.65132724  0.31496368  0.21875826    -0.25200
H2323       H  0.66303370  0.25966449  0.19357701     0.08700
H2324       H  0.66333795  0.28070560  0.21930794     0.12300
H2325       H  0.63432821  0.29906431  0.16083955     0.12200
H2326       H  0.62694894  0.32881900  0.17373500     0.12000
H2327       H  0.63057169  0.35104021  0.19821560     0.12500
H2328       H  0.65843783  0.31129794  0.23119830     0.14500
C2329       C  0.64371207  0.35355316  0.30304430    -0.05500
C2330       C  0.65516259  0.35687911  0.31811755    -0.05500
C2331       C  0.65498450  0.34538938  0.33327890    -0.23600
C2332       C  0.64347026  0.33020096  0.33360885     0.18600
C2333       C  0.63079693  0.32756580  0.31924626     0.15800
C2334       C  0.63085954  0.33935375  0.30414410    -0.18700
C2335       C  0.61930484  0.31236204  0.31955240    -0.20500
C2336       C  0.62159275  0.29904785  0.33292567    -0.13000
C2337       C  0.63531114  0.30070531  0.34635110     0.03600
C2338       C  0.64549328  0.31686402  0.34720755    -0.25200
H2339       H  0.66512712  0.36772835  0.31771761     0.08700
H2340       H  0.66465462  0.34777332  0.34424009     0.12300
H2341       H  0.62191792  0.33660921  0.29267016     0.12200
H2342       H  0.60934111  0.31019263  0.30880998     0.12000
H2343       H  0.61346729  0.28683353  0.33196846     0.12500
H2344       H  0.65609878  0.31836215  0.35746768     0.14500
C2345       C  0.71620635  0.37672374  0.25516295    -0.05500
C2346       C  0.72480629  0.38936677  0.26661560    -0.05500
C2347       C  0.74397954  0.39083440  0.26698311    -0.23600
C2348       C  0.75484821  0.37980269  0.25574081     0.18600
C2349       C  0.74626525  0.36726666  0.24395113     0.15800
C2350       C  0.72705222  0.36574630  0.24381196    -0.18700
C2351       C  0.75703396  0.35639767  0.23251092    -0.20500
C2352       C  0.77615941  0.35773619  0.23290902    -0.13000
C2353       C  0.78488036  0.36993656  0.24475563     0.03600
C2354       C  0.77412491  0.38103827  0.25610303    -0.25200
H2355       H  0.71669579  0.39803169  0.27540867     0.08700
H2356       H  0.75028947  0.40056756  0.27604285     0.12300
H2357       H  0.72054087  0.35609771  0.23477558     0.12200
H2358       H  0.75067775  0.34679765  0.22333202     0.12000
H2359       H  0.78415489  0.34909667  0.22398682     0.12500
H2360       H  0.78072094  0.39054023  0.26522629     0.14500
C2361       C  0.62600250  0.45956456  0.08284102    -0.05500
C2362       C  0.60975871  0.44930440  0.08323807    -0.05500
C2363       C  0.60690799  0.43518672  0.07081334    -0.23600
C2364       C  0.62020215  0.43106891  0.05760583     0.18600
C2365       C  0.63644382  0.44151001  0.05684071     0.15800
C2366       C  0.63926955  0.45561929  0.06946012    -0.18700
C2367       C  0.64969083  0.43753240  0.04357814    -0.20500
C2368       C  0.64702017  0.42326103  0.03135322    -0.13000
C2369       C  0.63108718  0.41254909  0.03210225     0.03600
C2370       C  0.61763505  0.41661774  0.04527905    -0.25200
H2371       H  0.59933501  0.45199798  0.09340820     0.08700
H2372       H  0.59434772  0.42740047  0.07163116     0.12300
H2373       H  0.65185441  0.46340744  0.06896329     0.12200
H2374       H  0.66221095  0.44538220  0.04273335     0.12000
H2375       H  0.65762807  0.42044871  0.02140706     0.12500
H2376       H  0.60529294  0.40848340  0.04604356     0.14500
C2377       C  0.64742689  0.46139339  0.16572028    -0.05500
C2378       C  0.66380290  0.45128401  0.16478999    -0.05500
C2379       C  0.66787396  0.43811513  0.17781918    -0.23600
C2380       C  0.65565147  0.43470660  0.19213127     0.18600
C2381       C  0.63915828  0.44475914  0.19341496     0.15800
C2382       C  0.63513377  0.45808926  0.18019018    -0.18700
C2383       C  0.62699346  0.44114784  0.20783473    -0.20500
C2384       C  0.63109096  0.42767303  0.22072978    -0.13000
C2385       C  0.64740961  0.41754533  0.21943441     0.03600
C2386       C  0.65963838  0.42126497  0.20506636    -0.25200
H2387       H  0.67350033  0.45347793  0.15384649     0.08700
H2388       H  0.68057613  0.43051531  0.17663319     0.12300
H2389       H  0.62242374  0.46572574  0.18105840     0.12200
H2390       H  0.61424741  0.44866147  0.20907277     0.12000
H2391       H  0.62137738  0.42498823  0.23154356     0.12500
H2392       H  0.67226657  0.41354348  0.20380685     0.14500
C2393       C  0.86066177  0.46243208  0.40828743    -0.05500
C2394       C  0.84330514  0.45854620  0.41571178    -0.05500
C2395       C  0.84136103  0.44567053  0.42959315    -0.23600
C2396       C  0.85674168  0.43631938  0.43638552     0.18600
C2397       C  0.87426403  0.44000689  0.42898703     0.15800
C2398       C  0.87612170  0.45301774  0.41504856    -0.18700
C2399       C  0.88963526  0.43056020  0.43562347    -0.20500
C2400       C  0.88769965  0.41756361  0.44934977    -0.13000
C2401       C  0.87039504  0.41378328  0.45692865     0.03600
C2402       C  0.85491809  0.42332568  0.45037577    -0.25200
H2403       H  0.83116250  0.46548786  0.41076139     0.08700
H2404       H  0.82779187  0.44302289  0.43501180     0.12300
H2405       H  0.88959493  0.45576559  0.40943566     0.12200
H2406       H  0.90318583  0.43316562  0.43013726     0.12000
H2407       H  0.89983680  0.41047288  0.45410669     0.12500
H2408       H  0.84146354  0.42050330  0.45599590     0.14500
C2409       C  0.86958132  0.46257355  0.32304257    -0.05500
C2410       C  0.88200811  0.44807376  0.32465460    -0.05500
C2411       C  0.88242610  0.43427152  0.31159180    -0.23600
C2412       C  0.87063600  0.43488058  0.29646004     0.18600
C2413       C  0.85874398  0.44988019  0.29420584     0.15800
C2414       C  0.85814292  0.46353549  0.30760811    -0.18700
C2415       C  0.84720458  0.45063198  0.27889586    -0.20500
C2416       C  0.84654988  0.43615385  0.26660576    -0.13000
C2417       C  0.85743465  0.42065058  0.26934075     0.03600
C2418       C  0.86996525  0.42040670  0.28398997    -0.25200
H2419       H  0.89097831  0.44708976  0.33640036     0.08700
H2420       H  0.89171445  0.42295654  0.31351341     0.12300
H2421       H  0.84866819  0.47478346  0.30615027     0.12200
H2422       H  0.83815511  0.46210467  0.27680356     0.12000
H2423       H  0.83679544  0.43670527  0.25546290     0.12500
H2424       H  0.87844704  0.40855221  0.28628221     0.14500
C2425       C  0.82594115  0.53941532  0.35372962    -0.05500
C2426       C  0.82959287  0.55131482  0.33927583    -0.05500
C2427       C  0.81732250  0.56518101  0.33476807    -0.23600
C2428       C  0.80088507  0.56743288  0.34444308     0.18600
C2429       C  0.79676688  0.55563617  0.35897275     0.15800
C2430       C  0.80943416  0.54174407  0.36367808    -0.18700
C2431       C  0.78001741  0.55798360  0.36834586    -0.20500
C2432       C  0.76757923  0.57179908  0.36332003    -0.13000
C2433       C  0.77172694  0.58366650  0.34895298     0.03600
C2434       C  0.78851152  0.58130187  0.33966713    -0.25200
H2435       H  0.84212978  0.54999618  0.33144495     0.08700
H2436       H  0.82067535  0.57412128  0.32358665     0.12300
H2437       H  0.80637626  0.53269477  0.37485209     0.12200
H2438       H  0.77650981  0.54910914  0.37952190     0.12000
H2439       H  0.75483161  0.57330934  0.37076716     0.12500
H2440       H  0.79197294  0.59026251  0.32851948     0.14500
C2441       C  0.73170954  0.57711266  0.14177347    -0.05500
C2442       C  0.72757270  0.56687866  0.15736887    -0.05500
C2443       C  0.71379728  0.55373272  0.15700195    -0.23600
C2444       C  0.70398637  0.55031921  0.14093618     0.18600
C2445       C  0.70857111  0.55986533  0.12490220     0.15800
C2446       C  0.72230194  0.57331191  0.12544094    -0.18700
C2447       C  0.69900309  0.55608148  0.10873708    -0.20500
C2448       C  0.68491448  0.54318806  0.10853007    -0.13000
C2449       C  0.67985145  0.53406015  0.12453185     0.03600
C2450       C  0.68952475  0.53768833  0.14071502    -0.25200
H2451       H  0.73438508  0.56966132  0.17019066     0.08700
H2452       H  0.71057072  0.54649543  0.16939355     0.12300
H2453       H  0.72522636  0.58118468  0.11336431     0.12200
H2454       H  0.70233179  0.56316508  0.09628210     0.12000
H2455       H  0.67768040  0.54062822  0.09589124     0.12500
H2456       H  0.68586328  0.53062169  0.15309587     0.14500
C2457       C  0.75399371  0.62585584  0.20856846    -0.05500
C2458       C  0.76987866  0.63032941  0.21842919    -0.05500
C2459       C  0.76978082  0.63031388  0.23740414    -0.23600
C2460       C  0.75383158  0.62556330  0.24690654     0.18600
C2461       C  0.73779956  0.62066556  0.23721794     0.15800
C2462       C  0.73789963  0.62104216  0.21803510    -0.18700
C2463       C  0.72202151  0.61551332  0.24694351    -0.20500
C2464       C  0.72208519  0.61555657  0.26605728    -0.13000
C2465       C  0.73781400  0.62099624  0.27569529     0.03600
C2466       C  0.75368511  0.62580757  0.26597707    -0.25200
H2467       H  0.78241064  0.63406919  0.21142903     0.08700
H2468       H  0.78217813  0.63402552  0.24464329     0.12300
H2469       H  0.72563787  0.61741331  0.21052971     0.12200
H2470       H  0.70963994  0.61160165  0.23979648     0.12000
H2471       H  0.70969077  0.61184037  0.27329426     0.12500
H2472       H  0.76593878  0.62987657  0.27328020     0.14500
C2473       C  0.67485171  0.71949915  0.15444966    -0.05500
C2474       C  0.68787125  0.72025498  0.16856942    -0.05500
C2475       C  0.70243870  0.70801582  0.16915097    -0.23600
C2476       C  0.70413872  0.69474499  0.15566660     0.18600
C2477       C  0.69135782  0.69410181  0.14115065     0.15800
C2478       C  0.67683491  0.70659533  0.14055902    -0.18700
C2479       C  0.69297561  0.68058194  0.12784632    -0.20500
C2480       C  0.70672066  0.66742591  0.12931655    -0.13000
C2481       C  0.71913950  0.66778032  0.14395798     0.03600
C2482       C  0.71806179  0.68173682  0.15683741    -0.25200
H2483       H  0.68655220  0.73006548  0.17946070     0.08700
H2484       H  0.71210190  0.70866140  0.18035624     0.12300
H2485       H  0.66677846  0.70587664  0.12969411     0.12200
H2486       H  0.68334831  0.67990524  0.11661160     0.12000
H2487       H  0.70744111  0.65678805  0.11918511     0.12500
H2488       H  0.72759422  0.68207103  0.16817983     0.14500
C2489       C  0.64825823  0.70541719  0.35870276    -0.05500
C2490       C  0.66366931  0.70781024  0.37005265    -0.05500
C2491       C  0.67719342  0.69435170  0.37152945    -0.23600
C2492       C  0.67573052  0.67825214  0.36149828     0.18600
C2493       C  0.65974029  0.67516169  0.35099481     0.15800
C2494       C  0.64598649  0.68864939  0.34985567    -0.18700
C2495       C  0.65839747  0.65917335  0.34076607    -0.20500
C2496       C  0.67325728  0.64708664  0.33980556    -0.13000
C2497       C  0.68968650  0.65052307  0.34928466     0.03600
C2498       C  0.69048730  0.66580547  0.36078737    -0.25200
H2499       H  0.66579617  0.72052949  0.37705482     0.08700
H2500       H  0.68926135  0.69695374  0.37976327     0.12300
H2501       H  0.63426242  0.68662377  0.34097658     0.12200
H2502       H  0.64622149  0.65647625  0.33271695     0.12000
H2503       H  0.67221325  0.63545976  0.33088118     0.12500
H2504       H  0.70307281  0.66873768  0.36810830     0.14500
C2505       C  0.62092347  0.75586569  0.21464148    -0.05500
C2506       C  0.61420236  0.77188181  0.22244261    -0.05500
C2507       C  0.61270854  0.77347261  0.24135928    -0.23600
C2508       C  0.61753103  0.75889469  0.25265862     0.18600
C2509       C  0.62392026  0.74258822  0.24480677     0.15800
C2510       C  0.62582349  0.74128218  0.22588561    -0.18700
C2511       C  0.62829180  0.72784022  0.25600219    -0.20500
C2512       C  0.62649723  0.72926502  0.27486946    -0.13000
C2513       C  0.62060465  0.74552900  0.28284974     0.03600
C2514       C  0.61610703  0.76032430  0.27165868    -0.25200
H2515       H  0.61045173  0.78326864  0.21392339     0.08700
H2516       H  0.60774717  0.78604463  0.24713894     0.12300
H2517       H  0.63089349  0.72884325  0.21987843     0.12200
H2518       H  0.63312980  0.71524115  0.25018013     0.12000
H2519       H  0.63014318  0.71775753  0.28327000     0.12500
H2520       H  0.61149193  0.77290199  0.27772660     0.14500
C2521       C  0.45877025  0.88015679  0.41362176    -0.05500
C2522       C  0.45081411  0.89706828  0.41760551    -0.05500
C2523       C  0.43654953  0.89866199  0.43034926    -0.23600
C2524       C  0.42965465  0.88332167  0.43926331     0.18600
C2525       C  0.43737711  0.86619647  0.43530193     0.15800
C2526       C  0.45199178  0.86473462  0.42268381    -0.18700
C2527       C  0.43016884  0.85080340  0.44387511    -0.20500
C2528       C  0.41553750  0.85232779  0.45622003    -0.13000
C2529       C  0.40786231  0.86928496  0.46051516     0.03600
C2530       C  0.41508584  0.88478758  0.45192892    -0.25200
H2531       H  0.45562379  0.90914355  0.41079706     0.08700
H2532       H  0.43078359  0.91190876  0.43309875     0.12300
H2533       H  0.45777106  0.85156225  0.41960012     0.12200
H2534       H  0.43579428  0.83753193  0.44096875     0.12000
H2535       H  0.41027657  0.84016998  0.46252954     0.12500
H2536       H  0.40924253  0.89795142  0.45493129     0.14500
C2537       C  0.53274420  0.83222218  0.35974953    -0.05500
C2538       C  0.53612338  0.82847012  0.34127907    -0.05500
C2539       C  0.54651018  0.81343980  0.33606137    -0.23600
C2540       C  0.55402484  0.80185970  0.34919952     0.18600
C2541       C  0.55089144  0.80536787  0.36785947     0.15800
C2542       C  0.54010028  0.82047231  0.37305351    -0.18700
C2543       C  0.55897102  0.79390435  0.38090456    -0.20500
C2544       C  0.57065564  0.77969929  0.37551483    -0.13000
C2545       C  0.57412887  0.77640148  0.35697533     0.03600
C2546       C  0.56523067  0.78725768  0.34391018    -0.25200
H2547       H  0.53055918  0.83713329  0.33072618     0.08700
H2548       H  0.54884510  0.81099849  0.32170619     0.12300
H2549       H  0.53759540  0.82315844  0.38733578     0.12200
H2550       H  0.55678898  0.79631635  0.39528418     0.12000
H2551       H  0.57749603  0.77170418  0.38586444     0.12500
H2552       H  0.56797617  0.78510596  0.32957004     0.14500
C2553       C  0.32544306  0.65622207  0.22498184    -0.05500
C2554       C  0.31189369  0.66965848  0.22691582    -0.05500
C2555       C  0.29713395  0.67057172  0.21486442    -0.23600
C2556       C  0.29568574  0.65805159  0.20065185     0.18600
C2557       C  0.30870896  0.64388658  0.19910235     0.15800
C2558       C  0.32352076  0.64300566  0.21135619    -0.18700
C2559       C  0.30708716  0.63133695  0.18486319    -0.20500
C2560       C  0.29327134  0.63339688  0.17176776    -0.13000
C2561       C  0.28091394  0.64800536  0.17275053     0.03600
C2562       C  0.28186037  0.65996753  0.18753548    -0.25200
H2563       H  0.31303356  0.67990994  0.23740658     0.08700
H2564       H  0.28718820  0.68140511  0.21631436     0.12300
H2565       H  0.33387504  0.63256147  0.20982737     0.12200
H2566       H  0.31683013  0.62032373  0.18351974     0.12000
H2567       H  0.29271591  0.62397365  0.16047582     0.12500
H2568       H  0.27230328  0.67119938  0.18845348     0.14500
C2569       C  0.30011714  0.64269879  0.35125954    -0.05500
C2570       C  0.29839461  0.62862436  0.33849127    -0.05500
C2571       C  0.31154613  0.62610506  0.32486222    -0.23600
C2572       C  0.32675738  0.63762299  0.32366486     0.18600
C2573       C  0.32943375  0.65101237  0.33715267     0.15800
C2574       C  0.31613192  0.65342582  0.35096103    -0.18700
C2575       C  0.34476499  0.66245615  0.33587614    -0.20500
C2576       C  0.35651501  0.66147549  0.32075961    -0.13000
C2577       C  0.35319038  0.64903567  0.30663557     0.03600
C2578       C  0.33865287  0.63667265  0.30858612    -0.25200
H2579       H  0.28627504  0.62014467  0.33837510     0.08700
H2580       H  0.30935469  0.61566383  0.31474492     0.12300
H2581       H  0.31764287  0.66436979  0.36065504     0.12200
H2582       H  0.34717392  0.67272872  0.34610945     0.12000
H2583       H  0.36753486  0.67122167  0.31958987     0.12500
H2584       H  0.33588956  0.62702876  0.29781156     0.14500
C2585       C  0.32592815  0.84696024  0.28628939    -0.05500
C2586       C  0.32613277  0.86173299  0.29830321    -0.05500
C2587       C  0.31213728  0.86392439  0.31111482    -0.23600
C2588       C  0.29785045  0.85127438  0.31212229     0.18600
C2589       C  0.29738726  0.83659907  0.29978003     0.15800
C2590       C  0.31136395  0.83459453  0.28690910    -0.18700
C2591       C  0.28325134  0.82383235  0.30084544    -0.20500
C2592       C  0.27014468  0.82510459  0.31460005    -0.13000
C2593       C  0.27087084  0.83925688  0.32731908     0.03600
C2594       C  0.28442445  0.85264035  0.32569546    -0.25200
H2595       H  0.33722860  0.87147205  0.29793611     0.08700
H2596       H  0.31268192  0.87524981  0.32043674     0.12300
H2597       H  0.31107657  0.82321222  0.27762450     0.12200
H2598       H  0.28266765  0.81258765  0.29142363     0.12000
H2599       H  0.25972511  0.81470512  0.31559668     0.12500
H2600       H  0.28506183  0.86358213  0.33548164     0.14500
C2601       C  0.34009500  0.85762415  0.20339273    -0.05500
C2602       C  0.32542955  0.86985750  0.20574337    -0.05500
C2603       C  0.31218501  0.87222340  0.19212215    -0.23600
C2604       C  0.31320138  0.86224499  0.17591242     0.18600
C2605       C  0.32830178  0.85051410  0.17300420     0.15800
C2606       C  0.34177347  0.84842926  0.18667764    -0.18700
C2607       C  0.32908741  0.84029699  0.15690497    -0.20500
C2608       C  0.31456322  0.84088442  0.14435471    -0.13000
C2609       C  0.29907048  0.85186607  0.14752781     0.03600
C2610       C  0.29883282  0.86301672  0.16307624    -0.25200
H2611       H  0.32374623  0.87707314  0.21847468     0.08700
H2612       H  0.30074038  0.88129693  0.19458907     0.12300
H2613       H  0.35289164  0.83883069  0.18474634     0.12200
H2614       H  0.34054453  0.83124940  0.15439585     0.12000
H2615       H  0.31506434  0.83206857  0.13258154     0.12500
H2616       H  0.28692191  0.87142552  0.16580390     0.14500
C2617       C  0.41398908  0.85479200  0.27816809    -0.05500
C2618       C  0.42054536  0.87263326  0.27785803    -0.05500
C2619       C  0.43352097  0.87849506  0.29072288    -0.23600
C2620       C  0.44010533  0.86663753  0.30420549     0.18600
C2621       C  0.43380872  0.84857626  0.30439607     0.15800
C2622       C  0.42095766  0.84276727  0.29136640    -0.18700
C2623       C  0.44016393  0.83667328  0.31785464    -0.20500
C2624       C  0.45256969  0.84259537  0.33108678    -0.13000
C2625       C  0.45897119  0.86052763  0.33117381     0.03600
C2626       C  0.45269366  0.87251905  0.31759672    -0.25200
H2627       H  0.41527573  0.88219368  0.26796273     0.08700
H2628       H  0.43815740  0.89239468  0.29032439     0.12300
H2629       H  0.41596121  0.82898877  0.29187213     0.12200
H2630       H  0.43546142  0.82279659  0.31822059     0.12000
H2631       H  0.45718245  0.83305237  0.34130969     0.12500
H2632       H  0.45752794  0.88636254  0.31748560     0.14500
C2633       C  0.37410016  0.78370778  0.24353839    -0.05500
C2634       C  0.37677615  0.77506886  0.22673919    -0.05500
C2635       C  0.37853639  0.75621689  0.22589931    -0.23600
C2636       C  0.37803117  0.74584357  0.24191156     0.18600
C2637       C  0.37614922  0.75458471  0.25892271     0.15800
C2638       C  0.37394734  0.77339610  0.25958921    -0.18700
C2639       C  0.37626596  0.74435185  0.27499573    -0.20500
C2640       C  0.37765730  0.72551869  0.27420439    -0.13000
C2641       C  0.37859669  0.71664422  0.25734707     0.03600
C2642       C  0.37902486  0.72688404  0.24122345    -0.25200
H2643       H  0.37702730  0.78284845  0.21424866     0.08700
H2644       H  0.38013722  0.74975568  0.21277042     0.12300
H2645       H  0.37219822  0.78004206  0.27262360     0.12200
H2646       H  0.37500155  0.75088019  0.28812890     0.12000
H2647       H  0.37722438  0.71782982  0.28675086     0.12500
H2648       H  0.37987873  0.72008250  0.22818428     0.14500
C2649       C  0.42152506  0.63096987  0.03556431    -0.05500
C2650       C  0.43247678  0.64647058  0.03769887    -0.05500
C2651       C  0.44666486  0.64692387  0.05057364    -0.23600
C2652       C  0.45024117  0.63186364  0.06162958     0.18600
C2653       C  0.43967204  0.61600375  0.05931304     0.15800
C2654       C  0.42540940  0.61563335  0.04628420    -0.18700
C2655       C  0.44325458  0.60095972  0.07041222    -0.20500
C2656       C  0.45672899  0.60180868  0.08402717    -0.13000
C2657       C  0.46701625  0.61765305  0.08677183     0.03600
C2658       C  0.46388708  0.63256123  0.07525183    -0.25200
H2659       H  0.42980035  0.65847083  0.02966349     0.08700
H2660       H  0.45462906  0.65918834  0.05210209     0.12300
H2661       H  0.41708367  0.60359272  0.04480227     0.12200
H2662       H  0.43537537  0.58865197  0.06882154     0.12000
H2663       H  0.45887993  0.59011978  0.09265619     0.12500
H2664       H  0.47168377  0.64487825  0.07722118     0.14500
C2665       C  0.53802865  0.57799460  0.12985939    -0.05500
C2666       C  0.53552431  0.56303905  0.14140425    -0.05500
C2667       C  0.54859260  0.54906471  0.14216564    -0.23600
C2668       C  0.56455501  0.54977191  0.13146732     0.18600
C2669       C  0.56709485  0.56460570  0.11959937     0.15800
C2670       C  0.55381448  0.57853018  0.11878990    -0.18700
C2671       C  0.58301269  0.56539140  0.10889880    -0.20500
C2672       C  0.59628929  0.55169776  0.10993227    -0.13000
C2673       C  0.59406327  0.53688851  0.12172413     0.03600
C2674       C  0.57807400  0.53602408  0.13251535    -0.25200
H2675       H  0.52350798  0.56223876  0.15004715     0.08700
H2676       H  0.54631259  0.53780908  0.15130599     0.12300
H2677       H  0.55598281  0.58997404  0.10984895     0.12200
H2678       H  0.58524256  0.57664954  0.09974406     0.12000
H2679       H  0.60844800  0.55278076  0.10151576     0.12500
H2680       H  0.57614454  0.52470176  0.14166087     0.14500
C2681       C  0.54058634  0.66220890  0.14332351    -0.05500
C2682       C  0.55012232  0.66135984  0.15996039    -0.05500
C2683       C  0.56332826  0.67429750  0.16447262    -0.23600
C2684       C  0.56727367  0.68849036  0.15247529     0.18600
C2685       C  0.55774530  0.68971458  0.13574629     0.15800
C2686       C  0.54448524  0.67650772  0.13121432    -0.18700
C2687       C  0.56172197  0.70411505  0.12389346    -0.20500
C2688       C  0.57509095  0.71701794  0.12850326    -0.13000
C2689       C  0.58479854  0.71572242  0.14499281     0.03600
C2690       C  0.58068878  0.70140287  0.15694565    -0.25200
H2691       H  0.54743491  0.65055687  0.16953827     0.08700
H2692       H  0.57048138  0.67317556  0.17736287     0.12300
H2693       H  0.53721519  0.67738000  0.11836742     0.12200
H2694       H  0.55456351  0.70534923  0.11101886     0.12000
H2695       H  0.57802578  0.72786325  0.11904989     0.12500
H2696       H  0.58802069  0.70021562  0.16973594     0.14500
C2697       C  0.41600876  0.64067268  0.22332652    -0.05500
C2698       C  0.42281061  0.62285179  0.22403743    -0.05500
C2699       C  0.43580371  0.61673443  0.21117782    -0.23600
C2700       C  0.44214441  0.62830161  0.19730836     0.18600
C2701       C  0.43504374  0.64608228  0.19640036     0.15800
C2702       C  0.42221145  0.65209427  0.20932327    -0.18700
C2703       C  0.44089141  0.65773644  0.18259024    -0.20500
C2704       C  0.45392458  0.65205331  0.16991242    -0.13000
C2705       C  0.46156630  0.63458828  0.17067771     0.03600
C2706       C  0.45547524  0.62261619  0.18441558    -0.25200
H2707       H  0.41808125  0.61367046  0.23449074     0.08700
H2708       H  0.44090773  0.60299091  0.21210304     0.12300
H2709       H  0.41694219  0.66579387  0.20836000     0.12200
H2710       H  0.43547083  0.67137105  0.18165642     0.12000
H2711       H  0.45821121  0.66154112  0.15953534     0.12500
H2712       H  0.46112112  0.60906112  0.18512378     0.14500
C2713       C  0.15107720  0.63922405  0.20093184    -0.05500
C2714       C  0.16552392  0.62691279  0.20405013    -0.05500
C2715       C  0.17960191  0.62465540  0.19132021    -0.23600
C2716       C  0.17959324  0.63470936  0.17516334     0.18600
C2717       C  0.16445642  0.64606925  0.17113274     0.15800
C2718       C  0.15015525  0.64813726  0.18398283    -0.18700
C2719       C  0.16461114  0.65616705  0.15494125    -0.20500
C2720       C  0.18021241  0.65619259  0.14372185    -0.13000
C2721       C  0.19584551  0.64591792  0.14831709     0.03600
C2722       C  0.19504708  0.63453237  0.16364726    -0.25200
H2723       H  0.16658558  0.61980534  0.21690045     0.08700
H2724       H  0.19099691  0.61575772  0.19457125     0.12300
H2725       H  0.13915550  0.65771002  0.18139195     0.12200
H2726       H  0.15309987  0.66483270  0.15147908     0.12000
H2727       H  0.18041917  0.66503786  0.13198057     0.12500
H2728       H  0.20698163  0.62654870  0.16739929     0.14500
C2729       C  0.16342860  0.65438328  0.28777759    -0.05500
C2730       C  0.15946263  0.64348258  0.30291237    -0.05500
C2731       C  0.17199365  0.64199372  0.31727174    -0.23600
C2732       C  0.18871870  0.65135387  0.31667109     0.18600
C2733       C  0.19291642  0.66213982  0.30134961     0.15800
C2734       C  0.18023089  0.66362896  0.28704219    -0.18700
C2735       C  0.20962863  0.67148181  0.30070207    -0.20500
C2736       C  0.22184196  0.67060600  0.31534930    -0.13000
C2737       C  0.21761044  0.66030502  0.33083172     0.03600
C2738       C  0.20115419  0.65040441  0.33127193    -0.25200
H2739       H  0.14654665  0.63627152  0.30375030     0.08700
H2740       H  0.16854422  0.63367480  0.32888493     0.12300
H2741       H  0.18340578  0.67202028  0.27538784     0.12200
H2742       H  0.21310737  0.67970450  0.28902362     0.12000
H2743       H  0.23451841  0.67823383  0.31467286     0.12500
H2744       H  0.19780459  0.64238547  0.34313368     0.14500
C2745       C  0.16080717  0.84631003  0.21012084    -0.05500
C2746       C  0.17452868  0.85941237  0.21249720    -0.05500
C2747       C  0.18847052  0.86137770  0.19960206    -0.23600
C2748       C  0.18888695  0.85023217  0.18415404     0.18600
C2749       C  0.17496030  0.83718997  0.18152821     0.15800
C2750       C  0.16102512  0.83531737  0.19451526    -0.18700
C2751       C  0.17535027  0.82604272  0.16609212    -0.20500
C2752       C  0.18970306  0.82748079  0.15359970    -0.13000
C2753       C  0.20385104  0.84008534  0.15633925     0.03600
C2754       C  0.20320988  0.85164316  0.17150174    -0.25200
H2755       H  0.17456312  0.86805931  0.22441896     0.08700
H2756       H  0.19900696  0.87145273  0.20180031     0.12300
H2757       H  0.15045379  0.82522064  0.19253666     0.12200
H2758       H  0.16475671  0.81603503  0.16384818     0.12000
H2759       H  0.18994658  0.81843058  0.14199167     0.12500
H2760       H  0.21405775  0.86140713  0.17369241     0.14500
C2761       C  0.19099508  0.85485232  0.34605191    -0.05500
C2762       C  0.19270824  0.86954273  0.33404889    -0.05500
C2763       C  0.17961057  0.87261134  0.32037626    -0.23600
C2764       C  0.16441995  0.86110051  0.31844963     0.18600
C2765       C  0.16187193  0.84696917  0.33112951     0.15800
C2766       C  0.17520286  0.84387597  0.34479970    -0.18700
C2767       C  0.14656118  0.83557990  0.32926447    -0.20500
C2768       C  0.13475190  0.83727252  0.31423572    -0.13000
C2769       C  0.13798664  0.85037642  0.30074284     0.03600
C2770       C  0.15242332  0.86278289  0.30342525    -0.25200
H2771       H  0.20474123  0.87812056  0.33459296     0.08700
H2772       H  0.18176127  0.88357886  0.31085629     0.12300
H2773       H  0.17369866  0.83247509  0.35392753     0.12200
H2774       H  0.14422585  0.82478563  0.33894043     0.12000
H2775       H  0.12380276  0.82751970  0.31256111     0.12500
H2776       H  0.15512271  0.87295980  0.29317004     0.14500
C2777       C  0.12421384  0.78339027  0.24882793    -0.05500
C2778       C  0.13971010  0.77546642  0.25704673    -0.05500
C2779       C  0.14234738  0.75678948  0.25658843    -0.23600
C2780       C  0.12952198  0.74565602  0.24786241     0.18600
C2781       C  0.11381017  0.75338291  0.23957204     0.15800
C2782       C  0.11121993  0.77225324  0.24012107    -0.18700
C2783       C  0.10097632  0.74206287  0.23096137    -0.20500
C2784       C  0.10355910  0.72326723  0.23088332    -0.13000
C2785       C  0.11907228  0.71553596  0.23925506     0.03600
C2786       C  0.13210796  0.72688054  0.24752598    -0.25200
H2787       H  0.14990843  0.78375725  0.26382365     0.08700
H2788       H  0.15441137  0.75106604  0.26304041     0.12300
H2789       H  0.09927114  0.77823669  0.23369550     0.12200
H2790       H  0.08887453  0.74770640  0.22451810     0.12000
H2791       H  0.09329859  0.71476041  0.22448447     0.12500
H2792       H  0.14406795  0.72108555  0.25411521     0.14500
C2793       C  0.03386073  0.86637983  0.07586786    -0.05500
C2794       C  0.03757666  0.84956937  0.06766916    -0.05500
C2795       C  0.05069672  0.84799036  0.05375987    -0.23600
C2796       C  0.06052639  0.86318478  0.04777659     0.18600
C2797       C  0.05660586  0.88024811  0.05559118     0.15800
C2798       C  0.04329438  0.88175612  0.06949159    -0.18700
C2799       C  0.06636060  0.89546531  0.04963715    -0.20500
C2800       C  0.08019766  0.89375361  0.03650350    -0.13000
C2801       C  0.08469131  0.87680118  0.02896118     0.03600
C2802       C  0.07450612  0.86155569  0.03448700    -0.25200
H2803       H  0.03048350  0.83753189  0.07219804     0.08700
H2804       H  0.05339475  0.83479203  0.04791220     0.12300
H2805       H  0.04058971  0.89483301  0.07561846     0.12200
H2806       H  0.06352578  0.90867955  0.05538392     0.12000
H2807       H  0.08772020  0.90573456  0.03254792     0.12500
H2808       H  0.07775173  0.84839755  0.02881357     0.14500
C2809       C  0.03537233  0.87355462  0.16402599    -0.05500
C2810       C  0.05218235  0.88267718  0.16187477    -0.05500
C2811       C  0.06574100  0.88200526  0.17546564    -0.23600
C2812       C  0.06284896  0.87209430  0.19150985     0.18600
C2813       C  0.04583599  0.86327981  0.19406720     0.15800
C2814       C  0.03220902  0.86412057  0.18038298    -0.18700
C2815       C  0.04295510  0.85328202  0.21003944    -0.20500
C2816       C  0.05700679  0.85135688  0.22297126    -0.13000
C2817       C  0.07425519  0.85944001  0.22031697     0.03600
C2818       C  0.07690063  0.87023165  0.20468590    -0.25200
H2819       H  0.05500966  0.89007957  0.14948354     0.08700
H2820       H  0.07865416  0.88889832  0.17323311     0.12300
H2821       H  0.01934982  0.85700831  0.18226337     0.12200
H2822       H  0.02999609  0.84646793  0.21228347     0.12000
H2823       H  0.05459580  0.84288293  0.23474464     0.12500
H2824       H  0.09015425  0.87643553  0.20232351     0.14500
C2825       C  0.03621439  0.62076247  0.41189488    -0.05500
C2826       C  0.05031163  0.60788613  0.40956516    -0.05500
C2827       C  0.06485181  0.60655506  0.42201212    -0.23600
C2828       C  0.06569936  0.61807689  0.43716371     0.18600
C2829       C  0.05161695  0.63104815  0.43979347     0.15800
C2830       C  0.03696717  0.63232690  0.42716089    -0.18700
C2831       C  0.05256026  0.64261206  0.45493815    -0.20500
C2832       C  0.06731545  0.64145776  0.46721318    -0.13000
C2833       C  0.08145695  0.62866625  0.46472799     0.03600
C2834       C  0.08045777  0.61692401  0.44963217    -0.25200
H2835       H  0.05021858  0.59888312  0.39792864     0.08700
H2836       H  0.07550859  0.59654584  0.41971440     0.12300
H2837       H  0.02629552  0.64239739  0.42911724     0.12200
H2838       H  0.04193575  0.65265146  0.45724114     0.12000
H2839       H  0.06768488  0.65066230  0.47868164     0.12500
H2840       H  0.09125633  0.60702458  0.44746701     0.14500
C2841       C  0.90844038  0.53707126  0.37490543    -0.05500
C2842       C  0.90860903  0.54778499  0.39073295    -0.05500
C2843       C  0.92180206  0.56137954  0.39313377    -0.23600
C2844       C  0.93514945  0.56459606  0.37973680     0.18600
C2845       C  0.93536370  0.55368176  0.36392383     0.15800
C2846       C  0.92207560  0.53999972  0.36162354    -0.18700
C2847       C  0.94868304  0.55685176  0.35051877    -0.20500
C2848       C  0.96142846  0.57087128  0.35256599    -0.13000
C2849       C  0.96122603  0.58207171  0.36806450     0.03600
C2850       C  0.94807806  0.57869730  0.38173056    -0.25200
H2851       H  0.89831670  0.54584329  0.40118363     0.08700
H2852       H  0.92140650  0.56953870  0.40537700     0.12300
H2853       H  0.92216038  0.53185992  0.34935214     0.12200
H2854       H  0.94911417  0.54862325  0.33832136     0.12000
H2855       H  0.97134951  0.57310121  0.34182921     0.12500
H2856       H  0.94771594  0.58719165  0.39375020     0.14500
C2857       C  0.03536647  0.64013590  0.33056692    -0.05500
C2858       C  0.04193694  0.65798194  0.33018233    -0.05500
C2859       C  0.05454815  0.66345900  0.31701567    -0.23600
C2860       C  0.06088274  0.65120637  0.30387397     0.18600
C2861       C  0.05458056  0.63315016  0.30408795     0.15800
C2862       C  0.04184323  0.62768622  0.31747696    -0.18700
C2863       C  0.06114053  0.62097077  0.29087173    -0.20500
C2864       C  0.07381513  0.62663839  0.27765950    -0.13000
C2865       C  0.08015034  0.64457118  0.27741492     0.03600
C2866       C  0.07351932  0.65676748  0.29060059    -0.25200
H2867       H  0.03724081  0.66782859  0.34008201     0.08700
H2868       H  0.05930204  0.67732602  0.31708247     0.12300
H2869       H  0.03694168  0.61387080  0.31765355     0.12200
H2870       H  0.05655801  0.60705044  0.29081500     0.12000
H2871       H  0.07892469  0.61691058  0.26784631     0.12500
H2872       H  0.07841709  0.67059295  0.29073386     0.14500
C2873       C  0.85504299  0.69785159  0.14530398    -0.05500
C2874       C  0.85905834  0.68240049  0.15573247    -0.05500
C2875       C  0.84759271  0.66722233  0.15518690    -0.23600
C2876       C  0.83180561  0.66713255  0.14418946     0.18600
C2877       C  0.82809678  0.68219558  0.13290850     0.15800
C2878       C  0.83973264  0.69743392  0.13349561    -0.18700
C2879       C  0.81233104  0.68208564  0.12187874    -0.20500
C2880       C  0.79990367  0.66767520  0.12272137    -0.13000
C2881       C  0.80286220  0.65308093  0.13467548     0.03600
C2882       C  0.81920391  0.65267039  0.14499217    -0.25200
H2883       H  0.87064165  0.68235391  0.16502141     0.08700
H2884       H  0.85073149  0.65579285  0.16388133     0.12300
H2885       H  0.83633228  0.70927319  0.12547751     0.12200
H2886       H  0.80925190  0.69344885  0.11308493     0.12000
H2887       H  0.78739267  0.66848773  0.11474554     0.12500
H2888       H  0.82161134  0.64163097  0.15439700     0.14500
C2889       C  0.96174445  0.82640628  0.12073182    -0.05500
C2890       C  0.94528348  0.82739770  0.11069569    -0.05500
C2891       C  0.93164053  0.81419416  0.11260392    -0.23600
C2892       C  0.93411154  0.79964658  0.12463166     0.18600
C2893       C  0.95083191  0.79809908  0.13434721     0.15800
C2894       C  0.96455171  0.81143818  0.13231568    -0.18700
C2895       C  0.95328829  0.78352926  0.14636428    -0.20500
C2896       C  0.93910744  0.77106849  0.14928708    -0.13000
C2897       C  0.92214033  0.77283339  0.14025651     0.03600
C2898       C  0.91991235  0.78701155  0.12759496    -0.25200
H2899       H  0.94272901  0.83869164  0.10164746     0.08700
H2900       H  0.91897067  0.81559998  0.10496916     0.12300
H2901       H  0.97714551  0.81044663  0.14014903     0.12200
H2902       H  0.96600792  0.78204859  0.15391015     0.12000
H2903       H  0.94118642  0.76042271  0.15920456     0.12500
H2904       H  0.90688042  0.78867750  0.12062661     0.14500
C2905       C  0.82359716  0.71526224  0.35012839    -0.05500
C2906       C  0.82394408  0.70235126  0.36413659    -0.05500
C2907       C  0.81021326  0.68921082  0.36525882    -0.23600
C2908       C  0.79603726  0.68875467  0.35229792     0.18600
C2909       C  0.79528839  0.70210611  0.33855050     0.15800
C2910       C  0.80897332  0.71531864  0.33764567    -0.18700
C2911       C  0.78126589  0.70163221  0.32547683    -0.20500
C2912       C  0.76858746  0.68753713  0.32547939    -0.13000
C2913       C  0.76963915  0.67380222  0.33863534     0.03600
C2914       C  0.78306737  0.67476339  0.35236256    -0.25200
H2915       H  0.83508377  0.70212791  0.37393830     0.08700
H2916       H  0.81096926  0.67912853  0.37591533     0.12300
H2917       H  0.80856034  0.72527143  0.32683386     0.12200
H2918       H  0.78046439  0.71181288  0.31491868     0.12000
H2919       H  0.75829873  0.68707933  0.31480846     0.12500
H2920       H  0.78396714  0.66420736  0.36254729     0.14500
C2921       C  0.91262813  0.71975751  0.35799522    -0.05500
C2922       C  0.91880952  0.71865645  0.37609428    -0.05500
C2923       C  0.93223873  0.70583275  0.38112723    -0.23600
C2924       C  0.93984484  0.69400129  0.36809625     0.18600
C2925       C  0.93413782  0.69557915  0.34976419     0.15800
C2926       C  0.92061670  0.70830063  0.34489308    -0.18700
C2927       C  0.94171110  0.68412096  0.33656191    -0.20500
C2928       C  0.95441235  0.67081248  0.34146325    -0.13000
C2929       C  0.95991563  0.66854372  0.35968089     0.03600
C2930       C  0.95276155  0.68044832  0.37299215    -0.25200
H2931       H  0.91278475  0.72724779  0.38645487     0.08700
H2932       H  0.93643416  0.70496246  0.39524820     0.12300
H2933       H  0.91603955  0.70905978  0.33086777     0.12200
H2934       H  0.93759722  0.68526066  0.32243277     0.12000
H2935       H  0.95979712  0.66207046  0.33088121     0.12500
H2936       H  0.95697392  0.67899200  0.38706100     0.14500
C2937       C  0.87186611  0.74407227  0.21789152    -0.05500
C2938       C  0.85588796  0.73657734  0.22545034    -0.05500
C2939       C  0.85312560  0.73663828  0.24422575    -0.23600
C2940       C  0.86624454  0.74435335  0.25581590     0.18600
C2941       C  0.88240104  0.75197317  0.24844638     0.15800
C2942       C  0.88516463  0.75173201  0.22948376    -0.18700
C2943       C  0.89541472  0.75977336  0.26019420    -0.20500
C2944       C  0.89239400  0.76002488  0.27903211    -0.13000
C2945       C  0.87633595  0.75250247  0.28640328     0.03600
C2946       C  0.86335662  0.74462467  0.27466586    -0.25200
H2947       H  0.84542153  0.73066439  0.21679517     0.08700
H2948       H  0.84068352  0.73076967  0.24966048     0.12300
H2949       H  0.89743908  0.75768646  0.22377312     0.12200
H2950       H  0.90786813  0.76567136  0.25483276     0.12000
H2951       H  0.90263840  0.76608102  0.28784152     0.12500
H2952       H  0.85095873  0.73871895  0.28018008     0.14500
C2953       C  0.84445189  0.21150218  0.15921670    -0.05500
C2954       C  0.85216672  0.19496791  0.15362022    -0.05500
C2955       C  0.85351413  0.18046993  0.16576923    -0.23600
C2956       C  0.84717316  0.18232874  0.18370673     0.18600
C2957       C  0.83946217  0.19896344  0.18942385     0.15800
C2958       C  0.83816139  0.21340749  0.17716714    -0.18700
C2959       C  0.83300794  0.20086435  0.20728134    -0.20500
C2960       C  0.83397027  0.18634127  0.21934998    -0.13000
C2961       C  0.84149396  0.16972194  0.21381618     0.03600
C2962       C  0.84823313  0.16781866  0.19598062    -0.25200
H2963       H  0.85702576  0.19319940  0.13979447     0.08700
H2964       H  0.85941466  0.16783066  0.16113313     0.12300
H2965       H  0.83217474  0.22610071  0.18158902     0.12200
H2966       H  0.82708042  0.21352029  0.21186396     0.12000
H2967       H  0.82872484  0.18809810  0.23304202     0.12500
H2968       H  0.85400917  0.15502815  0.19158696     0.14500
C2969       C  0.84973409  0.19487048  0.35064934    -0.05500
C2970       C  0.83584318  0.18174499  0.35210402    -0.05500
C2971       C  0.83499152  0.16718764  0.33989987    -0.23600
C2972       C  0.84802598  0.16541281  0.32593432     0.18600
C2973       C  0.86269267  0.17787256  0.32499115     0.15800
C2974       C  0.86351542  0.19245337  0.33739220    -0.18700
C2975       C  0.87568049  0.17614452  0.31097983    -0.20500
C2976       C  0.87353747  0.16297775  0.29740313    -0.13000
C2977       C  0.85845245  0.15112748  0.29758208     0.03600
C2978       C  0.84607438  0.15204399  0.31232952    -0.25200
H2979       H  0.82497755  0.18327996  0.36205431     0.08700
H2980       H  0.82368221  0.15775327  0.34092127     0.12300
H2981       H  0.87423686  0.20249964  0.33600036     0.12200
H2982       H  0.88708195  0.18548958  0.31006279     0.12000
H2983       H  0.88325528  0.16263904  0.28625157     0.12500
H2984       H  0.83430570  0.14309880  0.31264010     0.14500
C2985       C  0.64482429  0.14534883  0.19420166    -0.05500
C2986       C  0.65680616  0.14255190  0.17945578    -0.05500
C2987       C  0.65707876  0.15460710  0.16477822    -0.23600
C2988       C  0.64541002  0.16974813  0.16457911     0.18600
C2989       C  0.63232433  0.17193265  0.17862705     0.15800
C2990       C  0.63199661  0.15963498  0.19326717    -0.18700
C2991       C  0.62068516  0.18709538  0.17844815    -0.20500
C2992       C  0.62291827  0.20061764  0.16530896    -0.13000
C2993       C  0.63677976  0.19924106  0.15203376     0.03600
C2994       C  0.64746735  0.18334075  0.15130216    -0.25200
H2995       H  0.66684126  0.13170555  0.17981310     0.08700
H2996       H  0.66710488  0.15260863  0.15406282     0.12300
H2997       H  0.62270767  0.16199234  0.20455296     0.12200
H2998       H  0.61047843  0.18896065  0.18901418     0.12000
H2999       H  0.61450199  0.21268906  0.16623463     0.12500
H3000       H  0.65823863  0.18209748  0.14118914     0.14500
C3001       C  0.65553418  0.17247142  0.27443674    -0.05500
C3002       C  0.66729626  0.18711628  0.27104644    -0.05500
C3003       C  0.66779916  0.20185770  0.28291982    -0.23600
C3004       C  0.65662433  0.20208949  0.29844235     0.18600
C3005       C  0.64409581  0.18782826  0.30148507     0.15800
C3006       C  0.64350665  0.17318186  0.28936048    -0.18700
C3007       C  0.63291044  0.18808720  0.31701309    -0.20500
C3008       C  0.63465389  0.20198231  0.32978598    -0.13000
C3009       C  0.64759523  0.21578284  0.32722287     0.03600
C3010       C  0.65827232  0.21598831  0.31131339    -0.25200
H3011       H  0.67656226  0.18691256  0.25950693     0.08700
H3012       H  0.67733931  0.21274449  0.28030133     0.12300
H3013       H  0.63432712  0.16199270  0.29201319     0.12200
H3014       H  0.62319085  0.17732530  0.31951080     0.12000
H3015       H  0.62625855  0.20163169  0.34195728     0.12500
H3016       H  0.66818092  0.22667305  0.30918499     0.14500
C3017       C  0.71689757  0.11787160  0.23919521    -0.05500
C3018       C  0.72533598  0.11984139  0.22214947    -0.05500
C3019       C  0.74451709  0.11975206  0.22066432    -0.23600
C3020       C  0.75552911  0.11731178  0.23618712     0.18600
C3021       C  0.74709349  0.11424607  0.25323122     0.15800
C3022       C  0.72783988  0.11478708  0.25466754    -0.18700
C3023       C  0.75807406  0.11118608  0.26864214    -0.20500
C3024       C  0.77722868  0.11198728  0.26735825    -0.13000
C3025       C  0.78572189  0.11610214  0.25072538     0.03600
C3026       C  0.77479087  0.11837586  0.23506607    -0.25200
H3027       H  0.71709274  0.12220752  0.21007718     0.08700
H3028       H  0.75072324  0.12193016  0.20747015     0.12300
H3029       H  0.72136829  0.11303885  0.26781616     0.12200
H3030       H  0.75185039  0.10858679  0.28175277     0.12000
H3031       H  0.78538808  0.11009330  0.27956781     0.12500
H3032       H  0.78123502  0.12131645  0.22212733     0.14500
C3033       C  0.91191989  0.96271931  0.13170598    -0.05500
C3034       C  0.91443385  0.95318581  0.14810435    -0.05500
C3035       C  0.92735539  0.93910834  0.14939896    -0.23600
C3036       C  0.93808896  0.93418299  0.13430340     0.18600
C3037       C  0.93584643  0.94377619  0.11779704     0.15800
C3038       C  0.92286371  0.95797134  0.11661440    -0.18700
C3039       C  0.94644438  0.93882251  0.10264877    -0.20500
C3040       C  0.95898050  0.92445145  0.10373672    -0.13000
C3041       C  0.96137144  0.91470910  0.12001795     0.03600
C3042       C  0.95087136  0.91975497  0.13534657    -0.25200
H3043       H  0.90617179  0.95643691  0.15991841     0.08700
H3044       H  0.92881447  0.93194780  0.16218365     0.12300
H3045       H  0.92105242  0.96509714  0.10384247     0.12200
H3046       H  0.94493718  0.94598363  0.08986631     0.12000
H3047       H  0.96683440  0.92092561  0.09172801     0.12500
H3048       H  0.95247871  0.91235044  0.14797974     0.14500
C3049       C  0.87034450  0.08874568  0.03777587    -0.05500
C3050       C  0.88794670  0.08439812  0.04447981    -0.05500
C3051       C  0.89042098  0.07074261  0.05748125    -0.23600
C3052       C  0.87531275  0.06117037  0.06431769     0.18600
C3053       C  0.85750211  0.06538555  0.05779705     0.15800
C3054       C  0.85512606  0.07903636  0.04448025    -0.18700
C3055       C  0.84238749  0.05592412  0.06481932    -0.20500
C3056       C  0.84485907  0.04249308  0.07809524    -0.13000
C3057       C  0.86249365  0.03812503  0.08470694     0.03600
C3058       C  0.87770825  0.04758070  0.07765615    -0.25200
H3059       H  0.89992046  0.09156177  0.03958337     0.08700
H3060       H  0.90418808  0.06775385  0.06228212     0.12300
H3061       H  0.84145748  0.08225539  0.03953842     0.12200
H3062       H  0.82860358  0.05895219  0.06008812     0.12000
H3063       H  0.83287615  0.03555262  0.08328510     0.12500
H3064       H  0.89138950  0.04447079  0.08263307     0.14500
C3065       C  0.86389536  0.03217376  0.17335762    -0.05500
C3066       C  0.84916190  0.02884720  0.18525943    -0.05500
C3067       C  0.84582070  0.04008919  0.20020587    -0.23600
C3068       C  0.85715764  0.05498378  0.20368469     0.18600
C3069       C  0.87236789  0.05829329  0.19220969     0.15800
C3070       C  0.87565471  0.04688022  0.17707020    -0.18700
C3071       C  0.88369075  0.07323473  0.19586614    -0.20500
C3072       C  0.87951348  0.08515044  0.21019011    -0.13000
C3073       C  0.86393872  0.08240415  0.22117152     0.03600
C3074       C  0.85309261  0.06696457  0.21806313    -0.25200
H3075       H  0.83991431  0.01764329  0.18282914     0.08700
H3076       H  0.83413899  0.03729970  0.20887133     0.12300
H3077       H  0.88708587  0.04961763  0.16806501     0.12200
H3078       H  0.89546457  0.07601310  0.18732604     0.12000
H3079       H  0.88801162  0.09700180  0.21213313     0.12500
H3080       H  0.84098265  0.06469882  0.22631327     0.14500
C3081       C  0.61990954  0.09100397  0.46030992    -0.05500
C3082       C  0.60640006  0.09267455  0.44667128    -0.05500
C3083       C  0.60498063  0.07993329  0.43264059    -0.23600
C3084       C  0.61710889  0.06518679  0.43180353     0.18600
C3085       C  0.63070278  0.06318695  0.44545109     0.15800
C3086       C  0.63197561  0.07604430  0.45967437    -0.18700
C3087       C  0.64294922  0.04850380  0.44443392    -0.20500
C3088       C  0.64190268  0.03613003  0.42997963    -0.13000
C3089       C  0.62848332  0.03800822  0.41628378     0.03600
C3090       C  0.61600451  0.05256645  0.41741424    -0.25200
H3091       H  0.59694118  0.10401806  0.44673390     0.08700
H3092       H  0.59448290  0.08173223  0.42232278     0.12300
H3093       H  0.64251949  0.07458553  0.47000803     0.12200
H3094       H  0.65348180  0.04668806  0.45471335     0.12000
H3095       H  0.65168326  0.02506872  0.42948995     0.12500
H3096       H  0.60564247  0.05426674  0.40693347     0.14500
C3097       C  0.53341304  0.91919119  0.36970162    -0.05500
C3098       C  0.53210333  0.93195216  0.35554582    -0.05500
C3099       C  0.54452740  0.94637148  0.35431524    -0.23600
C3100       C  0.55864452  0.94839383  0.36719845     0.18600
C3101       C  0.56011076  0.93574871  0.38156096     0.15800
C3102       C  0.54750836  0.92127621  0.38274409    -0.18700
C3103       C  0.57428024  0.93771298  0.39439793    -0.20500
C3104       C  0.58697833  0.95185606  0.39290535    -0.13000
C3105       C  0.58581642  0.96445457  0.37859663     0.03600
C3106       C  0.57143697  0.96268271  0.36583275    -0.25200
H3107       H  0.52145579  0.93074241  0.34530130     0.08700
H3108       H  0.54315012  0.95588660  0.34319221     0.12300
H3109       H  0.54877409  0.91156644  0.39371977     0.12200
H3110       H  0.57566587  0.92819253  0.40551630     0.12000
H3111       H  0.59789412  0.95280688  0.40289869     0.12500
H3112       H  0.57039115  0.97220097  0.35466822     0.14500
C3113       C  0.64245627  0.08129072  0.27493281    -0.05500
C3114       C  0.62416671  0.07518484  0.27552136    -0.05500
C3115       C  0.61864780  0.06247539  0.28871981    -0.23600
C3116       C  0.63129711  0.05577839  0.30163802     0.18600
C3117       C  0.64976068  0.06157296  0.30068730     0.15800
C3118       C  0.65517423  0.07403744  0.28738529    -0.18700
C3119       C  0.66258487  0.05522498  0.31336969    -0.20500
C3120       C  0.65721609  0.04354203  0.32720698    -0.13000
C3121       C  0.63889826  0.03775032  0.32875252     0.03600
C3122       C  0.62592781  0.04374807  0.31568714    -0.25200
H3123       H  0.61406745  0.08057588  0.26613111     0.08700
H3124       H  0.60441966  0.05821841  0.28908704     0.12300
H3125       H  0.66934673  0.07854160  0.28712894     0.12200
H3126       H  0.67680389  0.05951751  0.31276017     0.12000
H3127       H  0.66755004  0.03908681  0.33685672     0.12500
H3128       H  0.61177341  0.03933652  0.31661434     0.14500
C3129       C  0.71628386  0.83156374  0.33724726    -0.05500
C3130       C  0.72090611  0.81504658  0.32894138    -0.05500
C3131       C  0.70846886  0.80069180  0.32888104    -0.23600
C3132       C  0.69114092  0.80272881  0.33697080     0.18600
C3133       C  0.68656334  0.81916395  0.34574739     0.15800
C3134       C  0.69922300  0.83340689  0.34597266    -0.18700
C3135       C  0.66920808  0.82126557  0.35374379    -0.20500
C3136       C  0.65635402  0.80732879  0.35274715    -0.13000
C3137       C  0.66065740  0.79108268  0.34378839     0.03600
C3138       C  0.67816628  0.78877329  0.33607404    -0.25200
H3139       H  0.73404776  0.81332058  0.32222569     0.08700
H3140       H  0.71223615  0.78817580  0.32218259     0.12300
H3141       H  0.69556240  0.84609092  0.35242275     0.12200
H3142       H  0.66548958  0.83375342  0.36051774     0.12000
H3143       H  0.64292170  0.80936259  0.35879227     0.12500
H3144       H  0.68160365  0.77625433  0.32919637     0.14500
C3145       C  0.80051108  0.85325514  0.34930283    -0.05500
C3146       C  0.81578242  0.85580760  0.33788076    -0.05500
C3147       C  0.83040292  0.84341182  0.33781273    -0.23600
C3148       C  0.83010253  0.82818929  0.34921433     0.18600
C3149       C  0.81554213  0.82624204  0.36178225     0.15800
C3150       C  0.80087297  0.83879114  0.36179419    -0.18700
C3151       C  0.81533647  0.81115075  0.37334042    -0.20500
C3152       C  0.82865326  0.79752714  0.37161274    -0.13000
C3153       C  0.84246639  0.79861182  0.35826689     0.03600
C3154       C  0.84347530  0.81438025  0.34752326    -0.25200
H3155       H  0.81590272  0.86677679  0.32811736     0.08700
H3156       H  0.84152209  0.84528369  0.32821520     0.12300
H3157       H  0.78921902  0.83662033  0.37068903     0.12200
H3158       H  0.80440492  0.80947416  0.38318437     0.12000
H3159       H  0.82749036  0.78560210  0.38008001     0.12500
H3160       H  0.85400955  0.81544935  0.33717037     0.14500
C3161       C  0.72207226  0.92047511  0.35261081    -0.05500
C3162       C  0.72116123  0.92552175  0.37105427    -0.05500
C3163       C  0.70808584  0.93829470  0.37700200    -0.23600
C3164       C  0.69547463  0.94598572  0.36465320     0.18600
C3165       C  0.69637595  0.94092783  0.34612555     0.15800
C3166       C  0.70972221  0.92850503  0.34024969    -0.18700
C3167       C  0.68366033  0.94805853  0.33371251    -0.20500
C3168       C  0.67007536  0.96007322  0.33952238    -0.13000
C3169       C  0.66897462  0.96544636  0.35783365     0.03600
C3170       C  0.68183439  0.95840239  0.37041174    -0.25200
H3171       H  0.73036287  0.91940295  0.38089979     0.08700
H3172       H  0.70761924  0.94189550  0.39128109     0.12300
H3173       H  0.71004480  0.92460474  0.32602287     0.12200
H3174       H  0.68412982  0.94423423  0.31948222     0.12000
H3175       H  0.66043484  0.96528674  0.32955556     0.12500
H3176       H  0.68108324  0.96236933  0.38458815     0.14500
C3177       C  0.70015216  0.84437928  0.13642769    -0.05500
C3178       C  0.70206751  0.83144898  0.12251176    -0.05500
C3179       C  0.68899946  0.81772077  0.12025848    -0.23600
C3180       C  0.67365275  0.81675920  0.13179070     0.18600
C3181       C  0.67093845  0.83043608  0.14498793     0.15800
C3182       C  0.68423358  0.84407228  0.14729900    -0.18700
C3183       C  0.65548956  0.82966678  0.15635136    -0.20500
C3184       C  0.64363828  0.81481600  0.15564041    -0.13000
C3185       C  0.64701849  0.80035971  0.14363517     0.03600
C3186       C  0.66164008  0.80181564  0.13114580    -0.25200
H3187       H  0.71426204  0.83129300  0.11406097     0.08700
H3188       H  0.69128757  0.80745196  0.10998312     0.12300
H3189       H  0.68260522  0.85395914  0.15808387     0.12200
H3190       H  0.65305313  0.84012392  0.16640357     0.12000
H3191       H  0.63251681  0.81409543  0.16539805     0.12500
H3192       H  0.66443858  0.79078624  0.12182262     0.14500
C3193       C  0.83815770  0.78810694  0.16114589    -0.05500
C3194       C  0.84118733  0.80366976  0.17165335    -0.05500
C3195       C  0.82815131  0.81745585  0.17204026    -0.23600
C3196       C  0.81197891  0.81587217  0.16183599     0.18600
C3197       C  0.80872993  0.80020200  0.15129392     0.15800
C3198       C  0.82184223  0.78633911  0.15108850    -0.18700
C3199       C  0.79252453  0.79879152  0.14101769    -0.20500
C3200       C  0.77976744  0.81295570  0.14102098    -0.13000
C3201       C  0.78307412  0.82856687  0.15138510     0.03600
C3202       C  0.79911452  0.82985271  0.16187347    -0.25200
H3203       H  0.85365369  0.80519033  0.17958901     0.08700
H3204       H  0.83077095  0.82939020  0.18019199     0.12300
H3205       H  0.81942855  0.77430189  0.14301626     0.12200
H3206       H  0.78981798  0.78686421  0.13289626     0.12000
H3207       H  0.76738649  0.81174333  0.13290262     0.12500
H3208       H  0.80172890  0.84185938  0.16994491     0.14500
C3209       C  0.77307626  0.91815762  0.13352699    -0.05500
C3210       C  0.76908259  0.93464885  0.14221555    -0.05500
C3211       C  0.78125605  0.94924499  0.14117854    -0.23600
C3212       C  0.79772112  0.94772705  0.13135971     0.18600
C3213       C  0.80159750  0.93150337  0.12190342     0.15800
C3214       C  0.78926091  0.91682687  0.12301816    -0.18700
C3215       C  0.81805026  0.93006187  0.11201116    -0.20500
C3216       C  0.83070364  0.94433928  0.11186490    -0.13000
C3217       C  0.82725234  0.96035747  0.12164158     0.03600
C3218       C  0.81055250  0.96199660  0.13121666    -0.25200
H3219       H  0.75687005  0.93603115  0.15053237     0.08700
H3220       H  0.77799970  0.96158518  0.14846345     0.12300
H3221       H  0.79264270  0.90416971  0.11636701     0.12200
H3222       H  0.82128746  0.91777534  0.10463693     0.12000
H3223       H  0.84342821  0.94267302  0.10439876     0.12500
H3224       H  0.80767355  0.97424178  0.13882043     0.14500
C3225       C  0.74398200  0.87795982  0.20858838    -0.05500
C3226       C  0.72673465  0.87692384  0.21702206    -0.05500
C3227       C  0.72528488  0.87723343  0.23597340    -0.23600
C3228       C  0.74105459  0.87894970  0.24682810     0.18600
C3229       C  0.75848200  0.88051518  0.23849551     0.15800
C3230       C  0.75987359  0.87974981  0.21939987    -0.18700
C3231       C  0.77416925  0.88269128  0.24944218    -0.20500
C3232       C  0.77261747  0.88296107  0.26845298    -0.13000
C3233       C  0.75540972  0.88080415  0.27682887     0.03600
C3234       C  0.73965916  0.87896208  0.26588340    -0.25200
H3235       H  0.71436458  0.87541065  0.20893369     0.08700
H3236       H  0.71182762  0.87607179  0.24214355     0.12300
H3237       H  0.77323313  0.88062018  0.21296432     0.12200
H3238       H  0.78762438  0.88403531  0.24332134     0.12000
H3239       H  0.78493981  0.88438496  0.27661654     0.12500
H3240       H  0.72630132  0.87742198  0.27219906     0.14500
loop_ 
_geom_bond_atom_site_label_1 
_geom_bond_atom_site_label_2 
_geom_bond_distance 
_geom_bond_site_symmetry_2 
_ccdc_geom_bond_type 
In1           O3   2.257       .  S
In1           O4   2.211       .  S
In1          O12   2.275       .  S
In1           O6   2.274       .  S
In1           O8   2.277       .  S
In1           O9   2.249       .  S
In1          O10   2.258       .  S
In1          O13   2.253       .  S
C2            O8   1.264       .  A
C2           O10   1.259       .  A
C2         C3177   1.487       .  S
O3           C11   1.259       .  A
O4           C11   1.258       .  A
C5           O12   1.259       .  A
C5            O6   1.255       .  A
C5         C3209   1.490       .  S
C7            O9   1.259       .  A
C7           O13   1.264       .  A
C7         C3225   1.476       .  S
C11        C3201   1.465       .  S
In14         O16   2.247       .  S
In14         O17   2.245       .  S
In14         O25   2.239       .  S
In14         O19   2.304       .  S
In14         O21   2.264       .  S
In14         O22   2.241       .  S
In14         O23   2.266       .  S
In14         O26   2.262       .  S
C15          O21   1.262       .  A
C15          O23   1.260       .  A
C15        C3145   1.490       .  S
O16          C24   1.260       .  A
O17          C24   1.259       .  A
C18          O25   1.255       .  A
C18          O19   1.263       .  A
C18        C3161   1.489       .  S
C20          O22   1.261       .  A
C20          O26   1.264       .  A
C20        C3233   1.481       .  S
C24        C3129   1.474       .  S
In27         O29   2.279       .  S
In27         O30   2.265       .  S
In27         O38   2.260   1_545  S
In27         O32   2.282   1_545  S
In27         O34   2.300       .  S
In27         O35   2.277   1_545  S
In27         O36   2.233       .  S
In27         O39   2.240   1_545  S
C28          O34   1.265       .  A
C28          O36   1.260       .  A
C28        C3121   1.492       .  S
O29          C37   1.263       .  A
O30          C37   1.260       .  A
C31          O38   1.260       .  A
C31          O32   1.263       .  A
C31        C3105   1.493       .  S
C33          O35   1.263       .  A
C33          O39   1.261       .  A
C33        C3169   1.486       .  S
C37        C3089   1.492       .  S
In40         O42   2.289   1_565  S
In40         O43   2.275   1_565  S
In40         O51   2.281       .  S
In40         O45   2.273       .  S
In40         O47   2.251   1_565  S
In40         O48   2.272       .  S
In40         O49   2.294   1_565  S
In40         O52   2.267       .  S
C41          O47   1.259       .  A
C41          O49   1.262       .  A
C41        C3065   1.492       .  S
O42          C50   1.261       .  A
O43          C50   1.260       .  A
C44          O51   1.262       .  A
C44          O45   1.261       .  A
C44        C3033   1.494       .  S
C46          O48   1.263       .  A
C46          O52   1.261       .  A
C46        C3217   1.492       .  S
C50        C3057   1.497       .  S
In53         O55   2.251       .  S
In53         O56   2.242       .  S
In53         O64   2.230       .  S
In53         O58   2.312       .  S
In53         O60   2.260       .  S
In53         O61   2.242       .  S
In53         O62   2.257       .  S
In53         O65   2.255       .  S
C54          O60   1.260       .  A
C54          O62   1.261       .  A
C54        C2985   1.486       .  S
O55          C63   1.261       .  A
O56          C63   1.259       .  A
C57          O64   1.253       .  A
C57          O58   1.263       .  A
C57        C3113   1.490       .  S
C59          O61   1.262       .  A
C59          O65   1.264       .  A
C59        C3017   1.476       .  S
C63        C3001   1.474       .  S
In66         O68   2.250       .  S
In66         O69   2.245       .  S
In66         O77   2.283       .  S
In66         O71   2.266       .  S
In66         O73   2.280       .  S
In66         O74   2.246       .  S
In66         O75   2.280       .  S
In66         O78   2.250       .  S
C67          O73   1.259       .  A
C67          O75   1.257       .  A
C67        C2977   1.493       .  S
O68          C76   1.259       .  A
O69          C76   1.260       .  A
C70          O77   1.260       .  A
C70          O71   1.257       .  A
C70        C3073   1.491       .  S
C72          O74   1.262       .  A
C72          O78   1.264       .  A
C72        C3025   1.479       .  S
C76        C2961   1.474       .  S
In79         O81   2.258       .  S
In79         O82   2.223       .  S
In79         O90   2.230       .  S
In79         O84   2.302       .  S
In79         O86   2.286       .  S
In79         O87   2.228       .  S
In79         O88   2.268       .  S
In79         O91   2.253       .  S
C80          O86   1.260       .  A
C80          O88   1.259       .  A
C80        C3153   1.493       .  S
O81          C89   1.266       .  A
O82          C89   1.262       .  A
C83          O90   1.255       .  A
C83          O84   1.267       .  A
C83        C2921   1.488       .  S
C85          O87   1.260       .  A
C85          O91   1.261       .  A
C85        C2905   1.473       .  S
C89        C2945   1.479       .  S
In92         O94   2.267       .  S
In92         O95   2.238       .  S
In92        O103   2.268       .  S
In92         O97   2.265       .  S
In92         O99   2.263       .  S
In92        O100   2.224       .  S
In92        O101   2.263       .  S
In92        O104   2.229       .  S
C93          O99   1.260       .  A
C93         O101   1.263       .  A
C93        C2873   1.490       .  S
O94         C102   1.261       .  A
O95         C102   1.258       .  A
C96         O103   1.263       .  A
C96          O97   1.259       .  A
C96        C2897   1.491       .  S
C98         O100   1.259       .  A
C98         O104   1.260       .  A
C98        C3193   1.463       .  S
C102       C2937   1.478       .  S
In105       O107   2.239       .  S
In105       O108   2.295       .  S
In105       O116   2.287       .  S
In105       O110   2.262       .  S
In105       O112   2.274   1_655  S
In105       O113   2.291   1_655  S
In105       O114   2.242   1_655  S
In105       O117   2.256   1_655  S
C106        O112   1.263       .  A
C106        O114   1.261       .  A
C106       C2857   1.486       .  S
O107        C115   1.261       .  A
O108        C115   1.265       .  A
C109        O116   1.263       .  A
C109        O110   1.260       .  A
C109       C2849   1.494       .  S
C111        O113   1.263       .  A
C111        O117   1.259       .  A
C111       C2825   1.494       .  S
C115       C2929   1.492       .  S
In118       O120   2.283       .  S
In118       O121   2.268       .  S
In118       O129   2.262       .  S
In118       O123   2.294       .  S
In118       O125   2.283   1_655  S
In118       O126   2.281   1_655  S
In118       O127   2.275   1_655  S
In118       O130   2.270   1_655  S
C119        O125   1.260       .  A
C119        O127   1.259       .  A
C119       C2809   1.493       .  S
O120        C128   1.262       .  A
O121        C128   1.261       .  A
C122        O129   1.259       .  A
C122        O123   1.262       .  A
C122       C3041   1.494       .  S
C124        O126   1.263       .  A
C124        O130   1.260       .  A
C124       C2793   1.494       .  S
C128       C2889   1.494       .  S
In131       O133   2.266       .  S
In131       O134   2.238       .  S
In131       O142   2.270       .  S
In131       O136   2.279       .  S
In131       O138   2.276       .  S
In131       O139   2.233       .  S
In131       O140   2.267       .  S
In131       O143   2.247       .  S
C132        O138   1.261       .  A
C132        O140   1.259       .  A
C132       C2769   1.492       .  S
O133        C141   1.262       .  A
O134        C141   1.259       .  A
C135        O142   1.256       .  A
C135        O136   1.262       .  A
C135       C2817   1.492       .  S
C137        O139   1.260       .  A
C137        O143   1.262       .  A
C137       C2745   1.473       .  S
C141       C2777   1.478       .  S
In144       O146   2.261       .  S
In144       O147   2.221       .  S
In144       O155   2.231       .  S
In144       O149   2.287       .  S
In144       O151   2.292       .  S
In144       O152   2.243       .  S
In144       O153   2.248       .  S
In144       O156   2.244       .  S
C145        O151   1.261       .  A
C145        O153   1.257       .  A
C145       C2713   1.489       .  S
O146        C154   1.266       .  A
O147        C154   1.261       .  A
C148        O155   1.257       .  A
C148        O149   1.266       .  A
C148       C2865   1.486       .  S
C150        O152   1.261       .  A
C150        O156   1.259       .  A
C150       C2729   1.473       .  S
C154       C2785   1.478       .  S
In157       O159   2.251       .  S
In157       O160   2.280       .  S
In157       O168   2.270       .  S
In157       O162   2.266       .  S
In157       O164   2.245       .  S
In157       O165   2.269       .  S
In157       O166   2.298       .  S
In157       O169   2.260       .  S
C158        O164   1.260       .  A
C158        O166   1.263       .  A
C158       C2705   1.493       .  S
O159        C167   1.262       .  A
O160        C167   1.263       .  A
C161        O168   1.262       .  A
C161        O162   1.263       .  A
C161       C2665   1.491       .  S
C163        O165   1.261       .  A
C163        O169   1.261       .  A
C163       C2657   1.488       .  S
C167       C2681   1.490       .  S
In170       O172   2.261       .  S
In170       O173   2.216       .  S
In170       O181   2.294       .  S
In170       O175   2.234       .  S
In170       O177   2.281       .  S
In170       O178   2.220       .  S
In170       O179   2.251       .  S
In170       O182   2.240       .  S
C171        O177   1.262       .  A
C171        O179   1.257       .  A
C171       C2601   1.487       .  S
O172        C180   1.266       .  A
O173        C180   1.260       .  A
C174        O181   1.264       .  A
C174        O175   1.253       .  A
C174       C2617   1.486       .  S
C176        O178   1.261       .  A
C176        O182   1.262       .  A
C176       C2585   1.468       .  S
C180       C2633   1.473       .  S
In183       O185   2.257       .  S
In183       O186   2.234       .  S
In183       O194   2.313       .  S
In183       O188   2.233       .  S
In183       O190   2.274       .  S
In183       O191   2.225       .  S
In183       O192   2.255       .  S
In183       O195   2.258       .  S
C184        O190   1.263       .  A
C184        O192   1.260       .  A
C184       C2577   1.489       .  S
O185        C193   1.265       .  A
O186        C193   1.260       .  A
C187        O194   1.264       .  A
C187        O188   1.254       .  A
C187       C2697   1.492       .  S
C189        O191   1.258       .  A
C189        O195   1.262       .  A
C189       C2553   1.472       .  S
C193       C2641   1.474       .  S
In196       O198   2.238       .  S
In196       O199   2.286       .  S
In196       O207   2.283       .  S
In196       O201   2.270       .  S
In196       O203   2.241       .  S
In196       O204   2.286       .  S
In196       O205   2.284       .  S
In196       O208   2.272       .  S
C197        O203   1.259       .  A
C197        O205   1.264       .  A
C197       C2625   1.487       .  S
O198        C206   1.261       .  A
O199        C206   1.266       .  A
C200        O207   1.264       .  A
C200        O201   1.263       .  A
C200       C3097   1.497       .  S
C202        O204   1.262       .  A
C202        O208   1.261       .  A
C202       C2521   1.496       .  S
C206       C2537   1.490       .  S
In209       O211   2.252       .  S
In209       O212   2.241       .  S
In209       O220   2.250       .  S
In209       O214   2.283       .  S
In209       O216   2.280       .  S
In209       O217   2.245       .  S
In209       O218   2.250       .  S
In209       O221   2.244       .  S
C210        O216   1.264       .  A
C210        O218   1.260       .  A
C210       C2489   1.491       .  S
O211        C219   1.263       .  A
O212        C219   1.260       .  A
C213        O220   1.257       .  A
C213        O214   1.261       .  A
C213       C2545   1.488       .  S
C215        O217   1.259       .  A
C215        O221   1.259       .  A
C215       C3137   1.472       .  S
C219       C2513   1.475       .  S
In222       O224   2.253       .  S
In222       O225   2.220       .  S
In222       O233   2.233       .  S
In222       O227   2.297       .  S
In222       O229   2.256       .  S
In222       O230   2.215       .  S
In222       O231   2.273       .  S
In222       O234   2.246       .  S
C223        O229   1.260       .  A
C223        O231   1.260       .  A
C223       C3185   1.488       .  S
O224        C232   1.265       .  A
O225        C232   1.259       .  A
C226        O233   1.254       .  A
C226        O227   1.266       .  A
C226       C2689   1.488       .  S
C228        O230   1.260       .  A
C228        O234   1.264       .  A
C228       C2473   1.469       .  S
C232       C2505   1.469       .  S
In235       O237   2.243       .  S
In235       O238   2.231       .  S
In235       O246   2.257       .  S
In235       O240   2.282       .  S
In235       O242   2.280       .  S
In235       O243   2.257       .  S
In235       O244   2.262       .  S
In235       O247   2.233       .  S
C236        O242   1.259       .  A
C236        O244   1.257       .  A
C236       C2881   1.490       .  S
O237        C245   1.260       .  A
O238        C245   1.260       .  A
C239        O246   1.256       .  A
C239        O240   1.258       .  A
C239       C2441   1.487       .  S
C241        O243   1.263       .  A
C241        O247   1.263       .  A
C241       C2457   1.477       .  S
C245       C2481   1.468       .  S
In248       O250   2.241       .  S
In248       O251   2.228       .  S
In248       O259   2.235       .  S
In248       O253   2.325       .  S
In248       O255   2.274       .  S
In248       O256   2.225       .  S
In248       O257   2.274       .  S
In248       O260   2.283       .  S
C249        O255   1.263       .  A
C249        O257   1.260       .  A
C249       C2497   1.493       .  S
O250        C258   1.264       .  A
O251        C258   1.261       .  A
C252        O259   1.253       .  A
C252        O253   1.267       .  A
C252       C2433   1.497       .  S
C254        O256   1.258       .  A
C254        O260   1.265       .  A
C254       C2465   1.480       .  S
C258       C2913   1.472       .  S
In261       O263   2.274       .  S
In261       O264   2.269       .  S
In261       O272   2.276       .  S
In261       O266   2.279       .  S
In261       O268   2.294       .  S
In261       O269   2.264       .  S
In261       O270   2.258       .  S
In261       O273   2.278       .  S
C262        O268   1.264       .  A
C262        O270   1.263       .  A
C262       C2425   1.497       .  S
O263        C271   1.262       .  A
O264        C271   1.260       .  A
C265        O272   1.259       .  A
C265        O266   1.262       .  A
C265       C2393   1.495       .  S
C267        O269   1.259       .  A
C267        O273   1.261       .  A
C267       C2409   1.484       .  S
C271       C2841   1.492       .  S
In274       O276   2.268       .  S
In274       O277   2.275       .  S
In274       O285   2.252       .  S
In274       O279   2.287       .  S
In274       O281   2.283       .  S
In274       O282   2.259       .  S
In274       O283   2.250       .  S
In274       O286   2.265       .  S
C275        O281   1.263       .  A
C275        O283   1.261       .  A
C275       C2377   1.490       .  S
O276        C284   1.260       .  A
O277        C284   1.260       .  A
C278        O285   1.260       .  A
C278        O279   1.263       .  A
C278       C2673   1.491       .  S
C280        O282   1.262       .  A
C280        O286   1.263       .  A
C280       C2449   1.486       .  S
C284       C2361   1.490       .  S
In287       O289   2.238       .  S
In287       O290   2.233       .  S
In287       O298   2.225       .  S
In287       O292   2.299       .  S
In287       O294   2.278       .  S
In287       O295   2.238       .  S
In287       O296   2.276       .  S
In287       O299   2.249       .  S
C288        O294   1.258       .  A
C288        O296   1.259       .  A
C288       C2329   1.492       .  S
O289        C297   1.261       .  A
O290        C297   1.263       .  A
C291        O298   1.255       .  A
C291        O292   1.268       .  A
C291       C2385   1.489       .  S
C293        O295   1.263       .  A
C293        O299   1.264       .  A
C293       C2345   1.478       .  S
C297       C2321   1.469       .  S
In300       O302   2.266       .  S
In300       O303   2.237       .  S
In300       O311   2.261       .  S
In300       O305   2.269       .  S
In300       O307   2.255       .  S
In300       O308   2.237       .  S
In300       O309   2.276       .  S
In300       O312   2.257       .  S
C301        O307   1.257       .  A
C301        O309   1.260       .  A
C301       C2297   1.485       .  S
O302        C310   1.261       .  A
O303        C310   1.258       .  A
C304        O311   1.257       .  A
C304        O305   1.260       .  A
C304       C2417   1.486       .  S
C306        O308   1.261       .  A
C306        O312   1.263       .  A
C306       C2353   1.477       .  S
C310       C2281   1.472       .  S
In313       O315   2.256       .  S
In313       O316   2.217       .  S
In313       O324   2.288       .  S
In313       O318   2.244       .  S
In313       O320   2.265       .  S
In313       O321   2.225       .  S
In313       O322   2.280       .  S
In313       O325   2.264       .  S
C314        O320   1.257       .  A
C314        O322   1.261       .  A
C314       C2217   1.491       .  S
O315        C323   1.264       .  A
O316        C323   1.261       .  A
C317        O324   1.263       .  A
C317        O318   1.257       .  A
C317       C2249   1.489       .  S
C319        O321   1.260       .  A
C319        O325   1.265       .  A
C319       C2265   1.478       .  S
C323       C2241   1.472       .  S
In326       O328   2.256       .  S
In326       O329   2.258       .  S
In326       O337   2.255       .  S
In326       O331   2.282       .  S
In326       O333   2.290       .  S
In326       O334   2.233       .  S
In326       O335   2.258       .  S
In326       O338   2.261       .  S
C327        O333   1.261       .  A
C327        O335   1.257       .  A
C327       C2185   1.489       .  S
O328        C336   1.261       .  A
O329        C336   1.259       .  A
C330        O337   1.256       .  A
C330        O331   1.261       .  A
C330       C2201   1.488       .  S
C332        O334   1.261       .  A
C332        O338   1.263       .  A
C332       C2273   1.477       .  S
C336       C2169   1.481       .  S
In339       O341   2.279   1_655  S
In339       O342   2.262   1_655  S
In339       O350   2.286       .  S
In339       O344   2.278       .  S
In339       O346   2.280   1_655  S
In339       O347   2.264       .  S
In339       O348   2.258   1_655  S
In339       O351   2.259       .  S
C340        O346   1.261       .  A
C340        O348   1.261       .  A
C340       C2153   1.490       .  S
O341        C349   1.263       .  A
O342        C349   1.260       .  A
C343        O350   1.260       .  A
C343        O344   1.260       .  A
C343       C2137   1.496       .  S
C345        O347   1.260       .  A
C345        O351   1.262       .  A
C345       C2209   1.486       .  S
C349       C2121   1.491       .  S
In352       O354   2.268   1_655  S
In352       O355   2.275   1_655  S
In352       O363   2.265       .  S
In352       O357   2.264       .  S
In352       O359   2.288   1_655  S
In352       O360   2.237       .  S
In352       O361   2.260   1_655  S
In352       O364   2.306       .  S
C353        O359   1.261       .  A
C353        O361   1.258       .  A
C353       C2105   1.490       .  S
O354        C362   1.260       .  A
O355        C362   1.263       .  A
C356        O363   1.260       .  A
C356        O357   1.263       .  A
C356       C2073   1.488       .  S
C358        O360   1.257       .  A
C358        O364   1.264       .  A
C358       C2257   1.492       .  S
C362       C2097   1.492       .  S
In365       O367   2.234       .  S
In365       O368   2.250       .  S
In365       O376   2.248       .  S
In365       O370   2.299       .  S
In365       O372   2.264       .  S
In365       O373   2.248       .  S
In365       O374   2.282       .  S
In365       O377   2.219       .  S
C366        O372   1.256       .  A
C366        O374   1.260       .  A
C366       C2025   1.490       .  S
O367        C375   1.261       .  A
O368        C375   1.261       .  A
C369        O376   1.255       .  A
C369        O370   1.263       .  A
C369       C2161   1.490       .  S
C371        O373   1.264       .  A
C371        O377   1.261       .  A
C371       C2065   1.470       .  S
C375       C2049   1.473       .  S
In378       O380   2.237       .  S
In378       O381   2.234       .  S
In378       O389   2.236       .  S
In378       O383   2.305       .  S
In378       O385   2.276       .  S
In378       O386   2.235       .  S
In378       O387   2.260       .  S
In378       O390   2.243       .  S
C379        O385   1.258       .  A
C379        O387   1.259       .  A
C379       C2009   1.488       .  S
O380        C388   1.260       .  A
O381        C388   1.260       .  A
C382        O389   1.252       .  A
C382        O383   1.264       .  A
C382       C2113   1.488       .  S
C384        O386   1.261       .  A
C384        O390   1.263       .  A
C384       C2057   1.471       .  S
C388       C1993   1.469       .  S
In391       O393   2.270       .  S
In391       O394   2.217       .  S
In391       O402   2.220       .  S
In391       O396   2.304       .  S
In391       O398   2.290       .  S
In391       O399   2.231       .  S
In391       O400   2.252       .  S
In391       O403   2.273       .  S
C392        O398   1.261       .  A
C392        O400   1.260       .  A
C392       C2193   1.493       .  S
O393        C401   1.264       .  A
O394        C401   1.259       .  A
C395        O402   1.257       .  A
C395        O396   1.268       .  A
C395       C1961   1.489       .  S
C397        O399   1.257       .  A
C397        O403   1.262       .  A
C397       C1945   1.478       .  S
C401       C1977   1.476       .  S
In404       O406   2.224       .  S
In404       O407   2.258       .  S
In404       O415   2.230       .  S
In404       O409   2.308       .  S
In404       O411   2.263       .  S
In404       O412   2.215       .  S
In404       O413   2.283       .  S
In404       O416   2.254       .  S
C405        O411   1.258       .  A
C405        O413   1.259       .  A
C405       C1913   1.490       .  S
O406        C414   1.262       .  A
O407        C414   1.264       .  A
C408        O415   1.256       .  A
C408        O409   1.269       .  A
C408       C1929   1.495       .  S
C410        O412   1.261       .  A
C410        O416   1.264       .  A
C410       C2233   1.472       .  S
C414       C1985   1.477       .  S
In417       O419   2.233   1_556  S
In417       O420   2.300   1_556  S
In417       O428   2.282   1_556  S
In417       O422   2.244   1_556  S
In417       O424   2.268       .  S
In417       O425   2.298       .  S
In417       O426   2.257       .  S
In417       O429   2.250       .  S
C418        O424   1.260       .  A
C418        O426   1.263       .  A
C418       C1969   1.486       .  S
O419        C427   1.258       .  A
O420        C427   1.264       .  A
C421        O428   1.264       .  A
C421        O422   1.260       .  A
C421       C2369   1.489       .  S
C423        O425   1.264       .  A
C423        O429   1.260       .  A
C423       C1881   1.495       .  S
C427       C1897   1.490       .  S
In430       O432   2.242       .  S
In430       O433   2.304       .  S
In430       O441   2.263       .  S
In430       O435   2.257       .  S
In430       O437   2.293   1_556  S
In430       O438   2.296   1_556  S
In430       O439   2.251   1_556  S
In430       O442   2.261   1_556  S
C431        O437   1.261       .  A
C431        O439   1.260       .  A
C431       C1865   1.491       .  S
O432        C440   1.260       .  A
O433        C440   1.266       .  A
C434        O441   1.264       .  A
C434        O435   1.264       .  A
C434       C2081   1.489       .  S
C436        O438   1.264       .  A
C436        O442   1.260       .  A
C436       C3049   1.496       .  S
C440       C1937   1.496       .  S
In443       O445   2.263       .  S
In443       O446   2.235       .  S
In443       O454   2.238       .  S
In443       O448   2.293       .  S
In443       O450   2.256       .  S
In443       O451   2.239       .  S
In443       O452   2.279       .  S
In443       O455   2.251       .  S
C444        O450   1.258       .  A
C444        O452   1.260       .  A
C444       C2305   1.487       .  S
O445        C453   1.264       .  A
O446        C453   1.260       .  A
C447        O454   1.256       .  A
C447        O448   1.262       .  A
C447       C1873   1.488       .  S
C449        O451   1.261       .  A
C449        O455   1.260       .  A
C449       C2953   1.474       .  S
C453       C1849   1.478       .  S
In456       O458   2.261       .  S
In456       O459   2.230       .  S
In456       O467   2.223       .  S
In456       O461   2.315       .  S
In456       O463   2.256       .  S
In456       O464   2.233       .  S
In456       O465   2.266       .  S
In456       O468   2.240       .  S
C457        O463   1.261       .  A
C457        O465   1.263       .  A
C457       C2993   1.488       .  S
O458        C466   1.266       .  A
O459        C466   1.259       .  A
C460        O467   1.253       .  A
C460        O461   1.265       .  A
C460       C1905   1.490       .  S
C462        O464   1.259       .  A
C462        O468   1.261       .  A
C462       C2313   1.468       .  S
C466       C1857   1.472       .  S
In469       O471   2.262       .  S
In469       O472   2.298       .  S
In469       O480   2.271       .  S
In469       O474   2.262       .  S
In469       O476   2.247       .  S
In469       O477   2.291       .  S
In469       O478   2.280       .  S
In469       O481   2.251       .  S
C470        O476   1.261       .  A
C470        O478   1.262       .  A
C470       C1841   1.488       .  S
O471        C479   1.261       .  A
O472        C479   1.264       .  A
C473        O480   1.263       .  A
C473        O474   1.262       .  A
C473       C1801   1.491       .  S
C475        O477   1.265       .  A
C475        O481   1.260       .  A
C475       C3081   1.494       .  S
C479       C1817   1.498       .  S
In482       O484   2.265       .  S
In482       O485   2.215       .  S
In482       O493   2.232       .  S
In482       O487   2.317       .  S
In482       O489   2.275       .  S
In482       O490   2.215       .  S
In482       O491   2.264       .  S
In482       O494   2.274       .  S
C483        O489   1.261       .  A
C483        O491   1.260       .  A
C483       C2969   1.491       .  S
O484        C492   1.266       .  A
O485        C492   1.259       .  A
C486        O493   1.254       .  A
C486        O487   1.267       .  A
C486       C1769   1.495       .  S
C488        O490   1.258       .  A
C488        O494   1.264       .  A
C488       C2289   1.476       .  S
C492       C1785   1.476       .  S
In495       O497   2.229       .  S
In495       O498   2.262       .  S
In495       O506   2.286       .  S
In495       O500   2.233       .  S
In495       O502   2.257       .  S
In495       O503   2.237       .  S
In495       O504   2.281       .  S
In495       O507   2.248       .  S
C496        O502   1.258       .  A
C496        O504   1.261       .  A
C496       C2337   1.490       .  S
O497        C505   1.260       .  A
O498        C505   1.263       .  A
C499        O506   1.267       .  A
C499        O500   1.258       .  A
C499       C1833   1.488       .  S
C501        O503   1.259       .  A
C501        O507   1.260       .  A
C501       C3009   1.472       .  S
C505       C1793   1.471       .  S
In508       O510   2.267       .  S
In508       O511   2.271       .  S
In508       O519   2.255       .  S
In508       O513   2.295       .  S
In508       O515   2.308       .  S
In508       O516   2.277       .  S
In508       O517   2.231       .  S
In508       O520   2.261       .  S
C509        O515   1.266       .  A
C509        O517   1.260       .  A
C509       C1777   1.496       .  S
O510        C518   1.258       .  A
O511        C518   1.259       .  A
C512        O519   1.260       .  A
C512        O513   1.264       .  A
C512       C2145   1.496       .  S
C514        O516   1.263       .  A
C514        O520   1.263       .  A
C514       C2401   1.493       .  S
C518       C1753   1.484       .  S
In521       O523   2.238       .  S
In521       O524   2.254       .  S
In521       O532   2.269       .  S
In521       O526   2.270       .  S
In521       O528   2.303       .  S
In521       O529   2.249       .  S
In521       O530   2.237       .  S
In521       O533   2.272       .  S
C522        O528   1.263       .  A
C522        O530   1.258       .  A
C522       C1721   1.490       .  S
O523        C531   1.261       .  A
O524        C531   1.262       .  A
C525        O532   1.258       .  A
C525        O526   1.257       .  A
C525       C1761   1.486       .  S
C527        O529   1.257       .  A
C527        O533   1.262       .  A
C527       C2177   1.481       .  S
C531       C1745   1.474       .  S
In534       O536   2.230       .  S
In534       O537   2.237       .  S
In534       O545   2.234       .  S
In534       O539   2.318       .  S
In534       O541   2.262       .  S
In534       O542   2.208       .  S
In534       O543   2.297       .  S
In534       O546   2.257       .  S
C535        O541   1.258       .  A
C535        O543   1.263       .  A
C535       C2225   1.497       .  S
O536        C544   1.262       .  A
O537        C544   1.265       .  A
C538        O545   1.254       .  A
C538        O539   1.270       .  A
C538       C1825   1.498       .  S
C540        O542   1.259       .  A
C540        O546   1.263       .  A
C540       C1705   1.468       .  S
C544       C1737   1.473       .  S
In547       O549   2.235       .  S
In547       O550   2.235       .  S
In547       O558   2.290       .  S
In547       O552   2.218       .  S
In547       O554   2.261       .  S
In547       O555   2.227       .  S
In547       O556   2.267       .  S
In547       O559   2.251       .  S
C548        O554   1.258       .  A
C548        O556   1.260       .  A
C548       C1921   1.487       .  S
O549        C557   1.258       .  A
O550        C557   1.262       .  A
C551        O558   1.268       .  A
C551        O552   1.256       .  A
C551       C1673   1.486       .  S
C553        O555   1.263       .  A
C553        O559   1.266       .  A
C553       C1697   1.473       .  S
C557       C1713   1.469       .  S
In560       O562   2.255       .  S
In560       O563   2.235       .  S
In560       O571   2.232       .  S
In560       O565   2.314       .  S
In560       O567   2.288       .  S
In560       O568   2.258       .  S
In560       O569   2.254       .  S
In560       O572   2.232       .  S
C561        O567   1.264       .  A
C561        O569   1.260       .  A
C561       C1729   1.493       .  S
O562        C570   1.263       .  A
O563        C570   1.261       .  A
C564        O571   1.252       .  A
C564        O565   1.265       .  A
C564       C1657   1.492       .  S
C566        O568   1.263       .  A
C566        O572   1.259       .  A
C566       C1689   1.471       .  S
C570       C1953   1.476       .  S
In573       O575   2.284       .  S
In573       O576   2.265       .  S
In573       O584   2.284       .  S
In573       O578   2.288       .  S
In573       O580   2.296       .  S
In573       O581   2.270       .  S
In573       O582   2.256       .  S
In573       O585   2.242       .  S
C574        O580   1.262       .  A
C574        O582   1.259       .  A
C574       C1665   1.493       .  S
O575        C583   1.262       .  A
O576        C583   1.259       .  A
C577        O584   1.260       .  A
C577        O578   1.263       .  A
C577       C1625   1.501       .  S
C579        O581   1.261       .  A
C579        O585   1.262       .  A
C579       C1641   1.484       .  S
C583       C1889   1.493       .  S
In586       O588   2.273       .  S
In586       O589   2.281       .  S
In586       O597   2.270       .  S
In586       O591   2.264       .  S
In586       O593   2.267       .  S
In586       O594   2.240       .  S
In586       O595   2.274       .  S
In586       O598   2.284       .  S
C587        O593   1.259       .  A
C587        O595   1.258       .  A
C587       C1609   1.486       .  S
O588        C596   1.260       .  A
O589        C596   1.262       .  A
C590        O597   1.263       .  A
C590        O591   1.261       .  A
C590       C1809   1.490       .  S
C592        O594   1.261       .  A
C592        O598   1.265       .  A
C592       C1681   1.488       .  S
C596       C1601   1.495       .  S
In599       O601   2.239       .  S
In599       O602   2.243       .  S
In599       O610   2.266       .  S
In599       O604   2.261       .  S
In599       O606   2.267       .  S
In599       O607   2.249       .  S
In599       O608   2.254       .  S
In599       O611   2.251       .  S
C600        O606   1.260       .  A
C600        O608   1.258       .  A
C600       C1561   1.485       .  S
O601        C609   1.260       .  A
O602        C609   1.261       .  A
C603        O610   1.259       .  A
C603        O604   1.258       .  A
C603       C1617   1.486       .  S
C605        O607   1.260       .  A
C605        O611   1.260       .  A
C605       C1577   1.475       .  S
C609       C1545   1.472       .  S
In612       O614   2.241       .  S
In612       O615   2.209       .  S
In612       O623   2.222       .  S
In612       O617   2.308       .  S
In612       O619   2.266       .  S
In612       O620   2.251       .  S
In612       O621   2.268       .  S
In612       O624   2.228       .  S
C613        O619   1.261       .  A
C613        O621   1.259       .  A
C613       C1529   1.490       .  S
O614        C622   1.264       .  A
O615        C622   1.260       .  A
C616        O623   1.254       .  A
C616        O617   1.266       .  A
C616       C1649   1.488       .  S
C618        O620   1.265       .  A
C618        O624   1.260       .  A
C618       C1585   1.476       .  S
C622       C1521   1.464       .  S
In625       O627   2.276       .  S
In625       O628   2.285       .  S
In625       O636   2.289       .  S
In625       O630   2.281       .  S
In625       O632   2.247       .  S
In625       O633   2.286       .  S
In625       O634   2.290       .  S
In625       O637   2.264       .  S
C626        O632   1.259       .  A
C626        O634   1.263       .  A
C626       C1481   1.490       .  S
O627        C635   1.263       .  A
O628        C635   1.264       .  A
C629        O636   1.258       .  A
C629        O630   1.258       .  A
C629       C2833   1.494       .  S
C631        O633   1.261       .  A
C631        O637   1.258       .  A
C631       C1505   1.490       .  S
C635       C1473   1.498       .  S
In638       O640   2.234       .  S
In638       O641   2.232       .  S
In638       O649   2.249       .  S
In638       O643   2.297       .  S
In638       O645   2.271       .  S
In638       O646   2.244       .  S
In638       O647   2.283       .  S
In638       O650   2.245       .  S
C639        O645   1.256       .  A
C639        O647   1.261       .  A
C639       C2761   1.491       .  S
O640        C648   1.261       .  A
O641        C648   1.261       .  A
C642        O649   1.255       .  A
C642        O643   1.264       .  A
C642       C1433   1.489       .  S
C644        O646   1.263       .  A
C644        O650   1.261       .  A
C644       C1449   1.475       .  S
C648       C2593   1.468       .  S
In651       O653   2.256       .  S
In651       O654   2.249       .  S
In651       O662   2.265       .  S
In651       O656   2.286       .  S
In651       O658   2.285       .  S
In651       O659   2.222       .  S
In651       O660   2.257       .  S
In651       O663   2.247       .  S
C652        O658   1.259       .  A
C652        O660   1.258       .  A
C652       C2569   1.489       .  S
O653        C661   1.259       .  A
O654        C661   1.259       .  A
C655        O662   1.253       .  A
C655        O656   1.260       .  A
C655       C1497   1.489       .  S
C657        O659   1.264       .  A
C657        O663   1.266       .  A
C657       C1457   1.473       .  S
C661       C2737   1.476       .  S
In664       O666   2.282       .  S
In664       O667   2.279       .  S
In664       O675   2.273       .  S
In664       O669   2.280       .  S
In664       O671   2.277       .  S
In664       O672   2.293       .  S
In664       O673   2.256       .  S
In664       O676   2.269       .  S
C665        O671   1.263       .  A
C665        O673   1.261       .  A
C665       C1441   1.490       .  S
O666        C674   1.261       .  A
O667        C674   1.263       .  A
C668        O675   1.259       .  A
C668        O669   1.259       .  A
C668       C1401   1.491       .  S
C670        O672   1.262       .  A
C670        O676   1.261       .  A
C670       C1417   1.496       .  S
C674       C2529   1.497       .  S
In677       O679   2.244       .  S
In677       O680   2.257       .  S
In677       O688   2.250       .  S
In677       O682   2.301       .  S
In677       O684   2.265       .  S
In677       O685   2.238       .  S
In677       O686   2.279       .  S
In677       O689   2.259       .  S
C678        O684   1.261       .  A
C678        O686   1.260       .  A
C678       C1369   1.493       .  S
O679        C687   1.259       .  A
O680        C687   1.261       .  A
C681        O688   1.255       .  A
C681        O682   1.264       .  A
C681       C1489   1.493       .  S
C683        O685   1.259       .  A
C683        O689   1.262       .  A
C683       C1385   1.477       .  S
C687       C1353   1.477       .  S
In690       O692   2.250       .  S
In690       O693   2.240       .  S
In690       O701   2.270       .  S
In690       O695   2.282       .  S
In690       O697   2.281       .  S
In690       O698   2.235       .  S
In690       O699   2.269       .  S
In690       O702   2.257       .  S
C691        O697   1.260       .  A
C691        O699   1.257       .  A
C691       C1337   1.490       .  S
O692        C700   1.261       .  A
O693        C700   1.260       .  A
C694        O701   1.258       .  A
C694        O695   1.261       .  A
C694       C1425   1.494       .  S
C696        O698   1.260       .  A
C696        O702   1.264       .  A
C696       C1393   1.478       .  S
C700       C1321   1.473       .  S
In703       O705   2.241       .  S
In703       O706   2.294       .  S
In703       O714   2.263       .  S
In703       O708   2.277       .  S
In703       O710   2.288       .  S
In703       O711   2.291       .  S
In703       O712   2.236       .  S
In703       O715   2.257       .  S
C704        O710   1.264       .  A
C704        O712   1.261       .  A
C704       C1313   1.488       .  S
O705        C713   1.259       .  A
O706        C713   1.264       .  A
C707        O714   1.262       .  A
C707        O708   1.263       .  A
C707       C2129   1.493       .  S
C709        O711   1.265       .  A
C709        O715   1.263       .  A
C709       C1465   1.498       .  S
C713       C1289   1.490       .  S
In716       O718   2.245       .  S
In716       O719   2.239       .  S
In716       O727   2.230       .  S
In716       O721   2.294       .  S
In716       O723   2.270       .  S
In716       O724   2.214       .  S
In716       O725   2.253       .  S
In716       O728   2.244       .  S
C717        O723   1.264       .  A
C717        O725   1.258       .  A
C717       C2017   1.488       .  S
O718        C726   1.263       .  A
O719        C726   1.261       .  A
C720        O727   1.253       .  A
C720        O721   1.265       .  A
C720       C1257   1.486       .  S
C722        O724   1.260       .  A
C722        O728   1.262       .  A
C722       C1513   1.466       .  S
C726       C1273   1.470       .  S
In729       O731   2.266       .  S
In729       O732   2.219       .  S
In729       O740   2.228       .  S
In729       O734   2.307       .  S
In729       O736   2.276       .  S
In729       O737   2.240       .  S
In729       O738   2.254       .  S
In729       O741   2.238       .  S
C730        O736   1.261       .  A
C730        O738   1.259       .  A
C730       C1569   1.486       .  S
O731        C739   1.266       .  A
O732        C739   1.260       .  A
C733        O740   1.253       .  A
C733        O734   1.264       .  A
C733       C1297   1.487       .  S
C735        O737   1.261       .  A
C735        O741   1.262       .  A
C735       C2041   1.473       .  S
C739       C1281   1.476       .  S
In742       O744   2.238       .  S
In742       O745   2.291       .  S
In742       O753   2.277       .  S
In742       O747   2.273       .  S
In742       O749   2.262       .  S
In742       O750   2.301       .  S
In742       O751   2.255       .  S
In742       O754   2.261       .  S
C743        O749   1.263       .  A
C743        O751   1.263       .  A
C743       C1265   1.486       .  S
O744        C752   1.259       .  A
O745        C752   1.265       .  A
C746        O753   1.262       .  A
C746        O747   1.259       .  A
C746       C1225   1.493       .  S
C748        O750   1.264       .  A
C748        O754   1.261       .  A
C748       C1633   1.500       .  S
C752       C1241   1.489       .  S
In755       O757   2.251       .  S
In755       O758   2.250       .  S
In755       O766   2.232       .  S
In755       O760   2.288       .  S
In755       O762   2.270       .  S
In755       O763   2.250       .  S
In755       O764   2.270       .  S
In755       O767   2.225       .  S
C756        O762   1.256       .  A
C756        O764   1.259       .  A
C756       C1345   1.488       .  S
O757        C765   1.263       .  A
O758        C765   1.261       .  A
C759        O766   1.258       .  A
C759        O760   1.265       .  A
C759       C1249   1.487       .  S
C761        O763   1.258       .  A
C761        O767   1.259       .  A
C761       C1193   1.466       .  S
C765       C1209   1.477       .  S
In768       O770   2.267       .  S
In768       O771   2.227       .  S
In768       O779   2.226       .  S
In768       O773   2.309       .  S
In768       O775   2.265       .  S
In768       O776   2.256       .  S
In768       O777   2.271       .  S
In768       O780   2.227       .  S
C769        O775   1.258       .  A
C769        O777   1.260       .  A
C769       C1177   1.490       .  S
O770        C778   1.266       .  A
O771        C778   1.259       .  A
C772        O779   1.256       .  A
C772        O773   1.267       .  A
C772       C1305   1.492       .  S
C774        O776   1.263       .  A
C774        O780   1.259       .  A
C774       C1361   1.475       .  S
C778       C1217   1.480       .  S
In781       O783   2.252       .  S
In781       O784   2.254       .  S
In781       O792   2.283       .  S
In781       O786   2.267       .  S
In781       O788   2.278       .  S
In781       O789   2.247       .  S
In781       O790   2.280       .  S
In781       O793   2.250       .  S
C782        O788   1.259       .  A
C782        O790   1.258       .  A
C782       C1185   1.492       .  S
O783        C791   1.259       .  A
O784        C791   1.260       .  A
C785        O792   1.258       .  A
C785        O786   1.259       .  A
C785       C1145   1.492       .  S
C787        O789   1.262       .  A
C787        O793   1.264       .  A
C787       C1161   1.478       .  S
C791       C1129   1.478       .  S
In794       O796   2.226       .  S
In794       O797   2.254       .  S
In794       O805   2.232       .  S
In794       O799   2.310       .  S
In794       O801   2.270       .  S
In794       O802   2.243       .  S
In794       O803   2.263       .  S
In794       O806   2.260       .  S
C795        O801   1.260       .  A
C795        O803   1.261       .  A
C795       C1105   1.490       .  S
O796        C804   1.259       .  A
O797        C804   1.261       .  A
C798        O805   1.254       .  A
C798        O799   1.263       .  A
C798       C1113   1.490       .  S
C800        O802   1.262       .  A
C800        O806   1.264       .  A
C800       C1169   1.480       .  S
C804       C1201   1.469       .  S
In807       O809   2.254   1_554  S
In807       O810   2.290   1_554  S
In807       O818   2.270       .  S
In807       O812   2.251       .  S
In807       O814   2.292   1_554  S
In807       O815   2.242       .  S
In807       O816   2.239   1_554  S
In807       O819   2.277       .  S
C808        O814   1.261       .  A
C808        O816   1.260       .  A
C808       C1121   1.489       .  S
O809        C817   1.261       .  A
O810        C817   1.262       .  A
C811        O818   1.263       .  A
C811        O812   1.262       .  A
C811       C2649   1.488       .  S
C813        O815   1.261       .  A
C813        O819   1.263       .  A
C813       C1081   1.485       .  S
C817       C1233   1.493       .  S
In820       O822   2.278       .  S
In820       O823   2.282       .  S
In820       O831   2.258   1_556  S
In820       O825   2.295   1_556  S
In820       O827   2.283       .  S
In820       O828   2.258   1_556  S
In820       O829   2.282       .  S
In820       O832   2.288   1_556  S
C821        O827   1.260       .  A
C821        O829   1.260       .  A
C821       C1153   1.494       .  S
O822        C830   1.259       .  A
O823        C830   1.261       .  A
C824        O831   1.261       .  A
C824        O825   1.264       .  A
C824       C2801   1.495       .  S
C826        O828   1.260       .  A
C826        O832   1.263       .  A
C826       C1065   1.491       .  S
C830       C1057   1.495       .  S
In833       O835   2.237       .  S
In833       O836   2.227       .  S
In833       O844   2.297       .  S
In833       O838   2.219       .  S
In833       O840   2.278       .  S
In833       O841   2.231       .  S
In833       O842   2.264       .  S
In833       O845   2.248       .  S
C834        O840   1.259       .  A
C834        O842   1.257       .  A
C834       C2721   1.489       .  S
O835        C843   1.262       .  A
O836        C843   1.263       .  A
C837        O844   1.267       .  A
C837        O838   1.255       .  A
C837       C1089   1.486       .  S
C839        O841   1.262       .  A
C839        O845   1.265       .  A
C839       C1033   1.476       .  S
C843       C2561   1.472       .  S
In846       O848   2.240       .  S
In846       O849   2.236       .  S
In846       O857   2.280       .  S
In846       O851   2.256       .  S
In846       O853   2.269       .  S
In846       O854   2.252       .  S
In846       O855   2.257       .  S
In846       O858   2.232       .  S
C847        O853   1.260       .  A
C847        O855   1.259       .  A
C847       C2609   1.487       .  S
O848        C856   1.263       .  A
O849        C856   1.261       .  A
C850        O857   1.262       .  A
C850        O851   1.257       .  A
C850       C1073   1.488       .  S
C852        O854   1.264       .  A
C852        O858   1.260       .  A
C852       C1041   1.474       .  S
C856       C2753   1.472       .  S
In859       O861   2.232       .  S
In859       O862   2.248       .  S
In859       O870   2.240       .  S
In859       O864   2.308       .  S
In859       O866   2.290       .  S
In859       O867   2.238       .  S
In859       O868   2.259       .  S
In859       O871   2.253       .  S
C860        O866   1.263       .  A
C860        O868   1.257       .  A
C860       C1377   1.491       .  S
O861        C869   1.261       .  A
O862        C869   1.263       .  A
C863        O870   1.253       .  A
C863        O864   1.264       .  A
C863       C1009   1.492       .  S
C865        O867   1.260       .  A
C865        O871   1.263       .  A
C865       C1137   1.476       .  S
C869       C1017   1.469       .  S
In872       O874   2.260       .  S
In872       O875   2.220       .  S
In872       O883   2.308       .  S
In872       O877   2.232       .  S
In872       O879   2.266       .  S
In872       O880   2.236       .  S
In872       O881   2.276       .  S
In872       O884   2.243       .  S
C873        O879   1.259       .  A
C873        O881   1.260       .  A
C873       C1097   1.491       .  S
O874        C882   1.267       .  A
O875        C882   1.260       .  A
C876        O883   1.266       .  A
C876        O877   1.254       .  A
C876        C985   1.492       .  S
C878        O880   1.260       .  A
C878        O884   1.261       .  A
C878       C1329   1.472       .  S
C882       C1025   1.475       .  S
In885       O887   2.279   1_545  S
In885       O888   2.268   1_545  S
In885       O896   2.259   1_545  S
In885       O890   2.301   1_545  S
In885       O892   2.249       .  S
In885       O893   2.276       .  S
In885       O894   2.294       .  S
In885       O897   2.268       .  S
C886        O892   1.261       .  A
C886        O894   1.265       .  A
C886        C969   1.494       .  S
O887        C895   1.261       .  A
O888        C895   1.260       .  A
C889        O896   1.259       .  A
C889        O890   1.264       .  A
C889       C1049   1.498       .  S
C891        O893   1.262       .  A
C891        O897   1.263       .  A
C891       C2089   1.494       .  S
C895       C1001   1.491       .  S
In898       O900   2.245   1_565  S
In898       O901   2.284   1_565  S
In898       O909   2.259   1_565  S
In898       O903   2.293   1_565  S
In898       O905   2.238       .  S
In898       O906   2.278       .  S
In898       O907   2.292       .  S
In898       O910   2.253       .  S
C899        O905   1.261       .  A
C899        O907   1.265       .  A
C899        C993   1.491       .  S
O900        C908   1.260       .  A
O901        C908   1.263       .  A
C902        O909   1.260       .  A
C902        O903   1.263       .  A
C902       C1593   1.496       .  S
C904        O906   1.263       .  A
C904        O910   1.263       .  A
C904       C1409   1.491       .  S
C908        C961   1.488       .  S
In911       O913   2.250       .  S
In911       O914   2.209       .  S
In911       O922   2.243       .  S
In911       O916   2.302       .  S
In911       O918   2.277       .  S
In911       O919   2.222       .  S
In911       O920   2.270       .  S
In911       O923   2.248       .  S
C912        O918   1.258       .  A
C912        O920   1.261       .  A
C912       C1537   1.491       .  S
O913        C921   1.266       .  A
O914        C921   1.261       .  A
C915        O922   1.256       .  A
C915        O916   1.268       .  A
C915        C977   1.495       .  S
C917        O919   1.260       .  A
C917        O923   1.263       .  A
C917       C2001   1.471       .  S
C921        C937   1.471       .  S
In924       O926   2.243       .  S
In924       O927   2.236       .  S
In924       O935   2.244       .  S
In924       O929   2.290       .  S
In924       O931   2.274       .  S
In924       O932   2.232       .  S
In924       O933   2.278       .  S
In924       O936   2.255       .  S
C925        O931   1.261       .  A
C925        O933   1.259       .  A
C925       C2033   1.494       .  S
O926        C934   1.261       .  A
O927        C934   1.260       .  A
C928        O935   1.256       .  A
C928        O929   1.263       .  A
C928        C953   1.488       .  S
C930        O932   1.257       .  A
C930        O936   1.261       .  A
C930       C1553   1.472       .  S
C934        C945   1.469       .  S
C937        C938   1.403       .  A
C937        C942   1.404       .  A
C938        C939   1.399       .  A
C938        H947   1.083       .  S
C939        C940   1.404       .  A
C939        H948   1.083       .  S
C940        C946   1.402       .  A
C940        C941   1.413       .  A
C941        C943   1.402       .  A
C941        C942   1.398       .  A
C942        H949   1.084       .  S
C943        C944   1.394       .  A
C943        H950   1.083       .  S
C944        C945   1.402       .  A
C944        H951   1.084       .  S
C945        C946   1.406       .  A
C946        H952   1.084       .  S
C953        C954   1.405       .  A
C953        C958   1.409       .  A
C954        C955   1.406       .  A
C954        H963   1.083       .  S
C955        C956   1.407       .  A
C955        H964   1.083       .  S
C956        C962   1.414       .  A
C956        C957   1.413       .  A
C957        C959   1.402       .  A
C957        C958   1.406       .  A
C958        H965   1.084       .  S
C959        C960   1.397       .  A
C959        H966   1.083       .  S
C960        C961   1.406       .  A
C960        H967   1.083       .  S
C961        C962   1.411       .  A
C962        H968   1.083       .  S
C969        C970   1.406       .  A
C969        C974   1.413       .  A
C970        C971   1.398       .  A
C970        H979   1.084       .  S
C971        C972   1.402       .  A
C971        H980   1.083       .  S
C972        C978   1.409       .  A
C972        C973   1.413       .  A
C973        C975   1.408       .  A
C973        C974   1.418       .  A
C974        H981   1.083       .  S
C975        C976   1.408       .  A
C975        H982   1.083       .  S
C976        C977   1.406       .  A
C976        H983   1.083       .  S
C977        C978   1.411       .  A
C978        H984   1.083       .  S
C985        C986   1.406       .  A
C985        C990   1.408       .  A
C986        C987   1.409       .  A
C986        H995   1.083       .  S
C987        C988   1.409       .  A
C987        H996   1.082       .  S
C988        C994   1.418       .  A
C988        C989   1.413       .  A
C989        C991   1.400       .  A
C989        C990   1.404       .  A
C990        H997   1.084       .  S
C991        C992   1.395       .  A
C991        H998   1.083       .  S
C992        C993   1.406       .  A
C992        H999   1.084       .  S
C993        C994   1.414       .  A
C994       H1000   1.083       .  S
C1001      C1002   1.407       .  A
C1001      C1006   1.408       .  A
C1002      C1003   1.403       .  A
C1002      H1011   1.084       .  S
C1003      C1004   1.404       .  A
C1003      H1012   1.083       .  S
C1004      C1010   1.415       .  A
C1004      C1005   1.415       .  A
C1005      C1007   1.401       .  A
C1005      C1006   1.412       .  A
C1006      H1013   1.083       .  S
C1007      C1008   1.398       .  A
C1007      H1014   1.083       .  S
C1008      C1009   1.409       .  A
C1008      H1015   1.084       .  S
C1009      C1010   1.410       .  A
C1010      H1016   1.083       .  S
C1017      C1018   1.401       .  A
C1017      C1022   1.406       .  A
C1018      C1019   1.396       .  A
C1018      H1027   1.084       .  S
C1019      C1020   1.403       .  A
C1019      H1028   1.082       .  S
C1020      C1026   1.400       .  A
C1020      C1021   1.413       .  A
C1021      C1023   1.405       .  A
C1021      C1022   1.403       .  A
C1022      H1029   1.083       .  S
C1023      C1024   1.400       .  A
C1023      H1030   1.082       .  S
C1024      C1025   1.403       .  A
C1024      H1031   1.084       .  S
C1025      C1026   1.406       .  A
C1026      H1032   1.083       .  S
C1033      C1034   1.404       .  A
C1033      C1038   1.405       .  A
C1034      C1035   1.398       .  A
C1034      H1043   1.084       .  S
C1035      C1036   1.403       .  A
C1035      H1044   1.082       .  S
C1036      C1042   1.404       .  A
C1036      C1037   1.414       .  A
C1037      C1039   1.401       .  A
C1037      C1038   1.402       .  A
C1038      H1045   1.083       .  S
C1039      C1040   1.396       .  A
C1039      H1046   1.082       .  S
C1040      C1041   1.405       .  A
C1040      H1047   1.084       .  S
C1041      C1042   1.404       .  A
C1042      H1048   1.083       .  S
C1049      C1050   1.408       .  A
C1049      C1054   1.412       .  A
C1050      C1051   1.400       .  A
C1050      H1059   1.083       .  S
C1051      C1052   1.402       .  A
C1051      H1060   1.083       .  S
C1052      C1058   1.412       .  A
C1052      C1053   1.414       .  A
C1053      C1055   1.405       .  A
C1053      C1054   1.417       .  A
C1054      H1061   1.084       .  S
C1055      C1056   1.405       .  A
C1055      H1062   1.083       .  S
C1056      C1057   1.407       .  A
C1056      H1063   1.083       .  S
C1057      C1058   1.410       .  A
C1058      H1064   1.084       .  S
C1065      C1066   1.407       .  A
C1065      C1070   1.411       .  A
C1066      C1067   1.399       .  A
C1066      H1075   1.083       .  S
C1067      C1068   1.402       .  A
C1067      H1076   1.083       .  S
C1068      C1074   1.408       .  A
C1068      C1069   1.414       .  A
C1069      C1071   1.406       .  A
C1069      C1070   1.414       .  A
C1070      H1077   1.083       .  S
C1071      C1072   1.404       .  A
C1071      H1078   1.083       .  S
C1072      C1073   1.405       .  A
C1072      H1079   1.083       .  S
C1073      C1074   1.409       .  A
C1074      H1080   1.084       .  S
C1081      C1082   1.405       .  A
C1081      C1086   1.411       .  A
C1082      C1083   1.396       .  A
C1082      H1091   1.084       .  S
C1083      C1084   1.401       .  A
C1083      H1092   1.083       .  S
C1084      C1090   1.403       .  A
C1084      C1085   1.413       .  A
C1085      C1087   1.407       .  A
C1085      C1086   1.412       .  A
C1086      H1093   1.083       .  S
C1087      C1088   1.406       .  A
C1087      H1094   1.083       .  S
C1088      C1089   1.405       .  A
C1088      H1095   1.083       .  S
C1089      C1090   1.409       .  A
C1090      H1096   1.083       .  S
C1097      C1098   1.407       .  A
C1097      C1102   1.409       .  A
C1098      C1099   1.402       .  A
C1098      H1107   1.083       .  S
C1099      C1100   1.404       .  A
C1099      H1108   1.083       .  S
C1100      C1106   1.412       .  A
C1100      C1101   1.414       .  A
C1101      C1103   1.403       .  A
C1101      C1102   1.411       .  A
C1102      H1109   1.084       .  S
C1103      C1104   1.400       .  A
C1103      H1110   1.083       .  S
C1104      C1105   1.406       .  A
C1104      H1111   1.083       .  S
C1105      C1106   1.411       .  A
C1106      H1112   1.083       .  S
C1113      C1114   1.407       .  A
C1113      C1118   1.406       .  A
C1114      C1115   1.410       .  A
C1114      H1123   1.083       .  S
C1115      C1116   1.410       .  A
C1115      H1124   1.082       .  S
C1116      C1122   1.418       .  A
C1116      C1117   1.413       .  A
C1117      C1119   1.399       .  A
C1117      C1118   1.401       .  A
C1118      H1125   1.084       .  S
C1119      C1120   1.392       .  A
C1119      H1126   1.083       .  S
C1120      C1121   1.405       .  A
C1120      H1127   1.084       .  S
C1121      C1122   1.415       .  A
C1122      H1128   1.082       .  S
C1129      C1130   1.405       .  A
C1129      C1134   1.407       .  A
C1130      C1131   1.397       .  A
C1130      H1139   1.084       .  S
C1131      C1132   1.402       .  A
C1131      H1140   1.083       .  S
C1132      C1138   1.403       .  A
C1132      C1133   1.414       .  A
C1133      C1135   1.403       .  A
C1133      C1134   1.405       .  A
C1134      H1141   1.083       .  S
C1135      C1136   1.398       .  A
C1135      H1142   1.083       .  S
C1136      C1137   1.404       .  A
C1136      H1143   1.084       .  S
C1137      C1138   1.406       .  A
C1138      H1144   1.083       .  S
C1145      C1146   1.406       .  A
C1145      C1150   1.412       .  A
C1146      C1147   1.401       .  A
C1146      H1155   1.083       .  S
C1147      C1148   1.403       .  A
C1147      H1156   1.083       .  S
C1148      C1154   1.412       .  A
C1148      C1149   1.414       .  A
C1149      C1151   1.405       .  A
C1149      C1150   1.414       .  A
C1150      H1157   1.083       .  S
C1151      C1152   1.404       .  A
C1151      H1158   1.083       .  S
C1152      C1153   1.407       .  A
C1152      H1159   1.083       .  S
C1153      C1154   1.409       .  A
C1154      H1160   1.084       .  S
C1161      C1162   1.405       .  A
C1161      C1166   1.404       .  A
C1162      C1163   1.400       .  A
C1162      H1171   1.083       .  S
C1163      C1164   1.403       .  A
C1163      H1172   1.083       .  S
C1164      C1170   1.408       .  A
C1164      C1165   1.415       .  A
C1165      C1167   1.401       .  A
C1165      C1166   1.405       .  A
C1166      H1173   1.084       .  S
C1167      C1168   1.397       .  A
C1167      H1174   1.083       .  S
C1168      C1169   1.405       .  A
C1168      H1175   1.084       .  S
C1169      C1170   1.407       .  A
C1170      H1176   1.084       .  S
C1177      C1178   1.406       .  A
C1177      C1182   1.411       .  A
C1178      C1179   1.402       .  A
C1178      H1187   1.083       .  S
C1179      C1180   1.404       .  A
C1179      H1188   1.083       .  S
C1180      C1186   1.412       .  A
C1180      C1181   1.414       .  A
C1181      C1183   1.404       .  A
C1181      C1182   1.411       .  A
C1182      H1189   1.084       .  S
C1183      C1184   1.401       .  A
C1183      H1190   1.083       .  S
C1184      C1185   1.407       .  A
C1184      H1191   1.083       .  S
C1185      C1186   1.410       .  A
C1186      H1192   1.084       .  S
C1193      C1194   1.404       .  A
C1193      C1198   1.400       .  A
C1194      C1195   1.398       .  A
C1194      H1203   1.083       .  S
C1195      C1196   1.403       .  A
C1195      H1204   1.083       .  S
C1196      C1202   1.402       .  A
C1196      C1197   1.415       .  A
C1197      C1199   1.399       .  A
C1197      C1198   1.396       .  A
C1198      H1205   1.084       .  S
C1199      C1200   1.392       .  A
C1199      H1206   1.083       .  S
C1200      C1201   1.404       .  A
C1200      H1207   1.084       .  S
C1201      C1202   1.405       .  A
C1202      H1208   1.083       .  S
C1209      C1210   1.404       .  A
C1209      C1214   1.406       .  A
C1210      C1211   1.398       .  A
C1210      H1219   1.084       .  S
C1211      C1212   1.403       .  A
C1211      H1220   1.082       .  S
C1212      C1218   1.403       .  A
C1212      C1213   1.413       .  A
C1213      C1215   1.404       .  A
C1213      C1214   1.405       .  A
C1214      H1221   1.083       .  S
C1215      C1216   1.400       .  A
C1215      H1222   1.082       .  S
C1216      C1217   1.404       .  A
C1216      H1223   1.084       .  S
C1217      C1218   1.408       .  A
C1218      H1224   1.083       .  S
C1225      C1226   1.409       .  A
C1225      C1230   1.407       .  A
C1226      C1227   1.406       .  A
C1226      H1235   1.083       .  S
C1227      C1228   1.406       .  A
C1227      H1236   1.083       .  S
C1228      C1234   1.417       .  A
C1228      C1229   1.414       .  A
C1229      C1231   1.401       .  A
C1229      C1230   1.410       .  A
C1230      H1237   1.084       .  S
C1231      C1232   1.398       .  A
C1231      H1238   1.084       .  S
C1232      C1233   1.406       .  A
C1232      H1239   1.083       .  S
C1233      C1234   1.413       .  A
C1234      H1240   1.083       .  S
C1241      C1242   1.406       .  A
C1241      C1246   1.412       .  A
C1242      C1243   1.394       .  A
C1242      H1251   1.083       .  S
C1243      C1244   1.400       .  A
C1243      H1252   1.083       .  S
C1244      C1250   1.403       .  A
C1244      C1245   1.413       .  A
C1245      C1247   1.408       .  A
C1245      C1246   1.415       .  A
C1246      H1253   1.083       .  S
C1247      C1248   1.407       .  A
C1247      H1254   1.083       .  S
C1248      C1249   1.406       .  A
C1248      H1255   1.083       .  S
C1249      C1250   1.407       .  A
C1250      H1256   1.084       .  S
C1257      C1258   1.404       .  A
C1257      C1262   1.410       .  A
C1258      C1259   1.403       .  A
C1258      H1267   1.083       .  S
C1259      C1260   1.406       .  A
C1259      H1268   1.083       .  S
C1260      C1266   1.410       .  A
C1260      C1261   1.412       .  A
C1261      C1263   1.403       .  A
C1261      C1262   1.405       .  A
C1262      H1269   1.084       .  S
C1263      C1264   1.399       .  A
C1263      H1270   1.083       .  S
C1264      C1265   1.406       .  A
C1264      H1271   1.083       .  S
C1265      C1266   1.410       .  A
C1266      H1272   1.084       .  S
C1273      C1274   1.401       .  A
C1273      C1278   1.407       .  A
C1274      C1275   1.395       .  A
C1274      H1283   1.084       .  S
C1275      C1276   1.402       .  A
C1275      H1284   1.082       .  S
C1276      C1282   1.400       .  A
C1276      C1277   1.413       .  A
C1277      C1279   1.406       .  A
C1277      C1278   1.406       .  A
C1278      H1285   1.083       .  S
C1279      C1280   1.402       .  A
C1279      H1286   1.082       .  S
C1280      C1281   1.404       .  A
C1280      H1287   1.084       .  S
C1281      C1282   1.405       .  A
C1282      H1288   1.083       .  S
C1289      C1290   1.406       .  A
C1289      C1294   1.413       .  A
C1290      C1291   1.394       .  A
C1290      H1299   1.083       .  S
C1291      C1292   1.400       .  A
C1291      H1300   1.084       .  S
C1292      C1298   1.403       .  A
C1292      C1293   1.413       .  A
C1293      C1295   1.409       .  A
C1293      C1294   1.416       .  A
C1294      H1301   1.083       .  S
C1295      C1296   1.408       .  A
C1295      H1302   1.083       .  S
C1296      C1297   1.406       .  A
C1296      H1303   1.083       .  S
C1297      C1298   1.406       .  A
C1298      H1304   1.084       .  S
C1305      C1306   1.407       .  A
C1305      C1310   1.407       .  A
C1306      C1307   1.410       .  A
C1306      H1315   1.083       .  S
C1307      C1308   1.410       .  A
C1307      H1316   1.083       .  S
C1308      C1314   1.418       .  A
C1308      C1309   1.413       .  A
C1309      C1311   1.399       .  A
C1309      C1310   1.402       .  A
C1310      H1317   1.084       .  S
C1311      C1312   1.393       .  A
C1311      H1318   1.084       .  S
C1312      C1313   1.405       .  A
C1312      H1319   1.083       .  S
C1313      C1314   1.414       .  A
C1314      H1320   1.083       .  S
C1321      C1322   1.405       .  A
C1321      C1326   1.404       .  A
C1322      C1323   1.396       .  A
C1322      H1331   1.084       .  S
C1323      C1324   1.401       .  A
C1323      H1332   1.083       .  S
C1324      C1330   1.401       .  A
C1324      C1325   1.414       .  A
C1325      C1327   1.402       .  A
C1325      C1326   1.402       .  A
C1326      H1333   1.083       .  S
C1327      C1328   1.396       .  A
C1327      H1334   1.083       .  S
C1328      C1329   1.404       .  A
C1328      H1335   1.084       .  S
C1329      C1330   1.405       .  A
C1330      H1336   1.083       .  S
C1337      C1338   1.407       .  A
C1337      C1342   1.409       .  A
C1338      C1339   1.403       .  A
C1338      H1347   1.083       .  S
C1339      C1340   1.405       .  A
C1339      H1348   1.083       .  S
C1340      C1346   1.412       .  A
C1340      C1341   1.413       .  A
C1341      C1343   1.403       .  A
C1341      C1342   1.410       .  A
C1342      H1349   1.084       .  S
C1343      C1344   1.400       .  A
C1343      H1350   1.083       .  S
C1344      C1345   1.406       .  A
C1344      H1351   1.083       .  S
C1345      C1346   1.411       .  A
C1346      H1352   1.083       .  S
C1353      C1354   1.405       .  A
C1353      C1358   1.406       .  A
C1354      C1355   1.395       .  A
C1354      H1363   1.084       .  S
C1355      C1356   1.401       .  A
C1355      H1364   1.083       .  S
C1356      C1362   1.401       .  A
C1356      C1357   1.414       .  A
C1357      C1359   1.404       .  A
C1357      C1358   1.405       .  A
C1358      H1365   1.083       .  S
C1359      C1360   1.399       .  A
C1359      H1366   1.083       .  S
C1360      C1361   1.404       .  A
C1360      H1367   1.083       .  S
C1361      C1362   1.405       .  A
C1362      H1368   1.083       .  S
C1369      C1370   1.406       .  A
C1369      C1374   1.413       .  A
C1370      C1371   1.400       .  A
C1370      H1379   1.083       .  S
C1371      C1372   1.403       .  A
C1371      H1380   1.083       .  S
C1372      C1378   1.410       .  A
C1372      C1373   1.413       .  A
C1373      C1375   1.406       .  A
C1373      C1374   1.415       .  A
C1374      H1381   1.083       .  S
C1375      C1376   1.405       .  A
C1375      H1382   1.083       .  S
C1376      C1377   1.407       .  A
C1376      H1383   1.083       .  S
C1377      C1378   1.409       .  A
C1378      H1384   1.084       .  S
C1385      C1386   1.405       .  A
C1385      C1390   1.405       .  A
C1386      C1387   1.396       .  A
C1386      H1395   1.084       .  S
C1387      C1388   1.401       .  A
C1387      H1396   1.082       .  S
C1388      C1394   1.405       .  A
C1388      C1389   1.415       .  A
C1389      C1391   1.401       .  A
C1389      C1390   1.405       .  A
C1390      H1397   1.083       .  S
C1391      C1392   1.397       .  A
C1391      H1398   1.082       .  S
C1392      C1393   1.406       .  A
C1392      H1399   1.084       .  S
C1393      C1394   1.405       .  A
C1394      H1400   1.083       .  S
C1401      C1402   1.407       .  A
C1401      C1406   1.407       .  A
C1402      C1403   1.405       .  A
C1402      H1411   1.083       .  S
C1403      C1404   1.406       .  A
C1403      H1412   1.083       .  S
C1404      C1410   1.415       .  A
C1404      C1405   1.414       .  A
C1405      C1407   1.401       .  A
C1405      C1406   1.409       .  A
C1406      H1413   1.084       .  S
C1407      C1408   1.398       .  A
C1407      H1414   1.084       .  S
C1408      C1409   1.406       .  A
C1408      H1415   1.083       .  S
C1409      C1410   1.412       .  A
C1410      H1416   1.083       .  S
C1417      C1418   1.407       .  A
C1417      C1422   1.413       .  A
C1418      C1419   1.401       .  A
C1418      H1427   1.083       .  S
C1419      C1420   1.403       .  A
C1419      H1428   1.083       .  S
C1420      C1426   1.412       .  A
C1420      C1421   1.414       .  A
C1421      C1423   1.406       .  A
C1421      C1422   1.416       .  A
C1422      H1429   1.084       .  S
C1423      C1424   1.405       .  A
C1423      H1430   1.083       .  S
C1424      C1425   1.407       .  A
C1424      H1431   1.083       .  S
C1425      C1426   1.410       .  A
C1426      H1432   1.084       .  S
C1433      C1434   1.406       .  A
C1433      C1438   1.409       .  A
C1434      C1435   1.405       .  A
C1434      H1443   1.083       .  S
C1435      C1436   1.406       .  A
C1435      H1444   1.083       .  S
C1436      C1442   1.413       .  A
C1436      C1437   1.413       .  A
C1437      C1439   1.402       .  A
C1437      C1438   1.408       .  A
C1438      H1445   1.084       .  S
C1439      C1440   1.399       .  A
C1439      H1446   1.083       .  S
C1440      C1441   1.406       .  A
C1440      H1447   1.083       .  S
C1441      C1442   1.411       .  A
C1442      H1448   1.084       .  S
C1449      C1450   1.404       .  A
C1449      C1454   1.407       .  A
C1450      C1451   1.396       .  A
C1450      H1459   1.084       .  S
C1451      C1452   1.401       .  A
C1451      H1460   1.082       .  S
C1452      C1458   1.401       .  A
C1452      C1453   1.414       .  A
C1453      C1455   1.404       .  A
C1453      C1454   1.405       .  A
C1454      H1461   1.083       .  S
C1455      C1456   1.400       .  A
C1455      H1462   1.082       .  S
C1456      C1457   1.404       .  A
C1456      H1463   1.084       .  S
C1457      C1458   1.404       .  A
C1458      H1464   1.083       .  S
C1465      C1466   1.407       .  A
C1465      C1470   1.413       .  A
C1466      C1467   1.401       .  A
C1466      H1475   1.083       .  S
C1467      C1468   1.403       .  A
C1467      H1476   1.083       .  S
C1468      C1474   1.413       .  A
C1468      C1469   1.414       .  A
C1469      C1471   1.406       .  A
C1469      C1470   1.418       .  A
C1470      H1477   1.083       .  S
C1471      C1472   1.406       .  A
C1471      H1478   1.083       .  S
C1472      C1473   1.407       .  A
C1472      H1479   1.083       .  S
C1473      C1474   1.411       .  A
C1474      H1480   1.084       .  S
C1481      C1482   1.406       .  A
C1481      C1486   1.413       .  A
C1482      C1483   1.396       .  A
C1482      H1491   1.083       .  S
C1483      C1484   1.401       .  A
C1483      H1492   1.083       .  S
C1484      C1490   1.407       .  A
C1484      C1485   1.413       .  A
C1485      C1487   1.407       .  A
C1485      C1486   1.417       .  A
C1486      H1493   1.083       .  S
C1487      C1488   1.407       .  A
C1487      H1494   1.083       .  S
C1488      C1489   1.407       .  A
C1488      H1495   1.083       .  S
C1489      C1490   1.409       .  A
C1490      H1496   1.084       .  S
C1497      C1498   1.405       .  A
C1497      C1502   1.411       .  A
C1498      C1499   1.402       .  A
C1498      H1507   1.083       .  S
C1499      C1500   1.404       .  A
C1499      H1508   1.083       .  S
C1500      C1506   1.412       .  A
C1500      C1501   1.414       .  A
C1501      C1503   1.404       .  A
C1501      C1502   1.410       .  A
C1502      H1509   1.083       .  S
C1503      C1504   1.401       .  A
C1503      H1510   1.083       .  S
C1504      C1505   1.407       .  A
C1504      H1511   1.083       .  S
C1505      C1506   1.409       .  A
C1506      H1512   1.083       .  S
C1513      C1514   1.403       .  A
C1513      C1518   1.402       .  A
C1514      C1515   1.397       .  A
C1514      H1523   1.084       .  S
C1515      C1516   1.402       .  A
C1515      H1524   1.082       .  S
C1516      C1522   1.400       .  A
C1516      C1517   1.415       .  A
C1517      C1519   1.399       .  A
C1517      C1518   1.395       .  A
C1518      H1525   1.083       .  S
C1519      C1520   1.391       .  A
C1519      H1526   1.082       .  S
C1520      C1521   1.403       .  A
C1520      H1527   1.084       .  S
C1521      C1522   1.403       .  A
C1522      H1528   1.083       .  S
C1529      C1530   1.407       .  A
C1529      C1534   1.409       .  A
C1530      C1531   1.403       .  A
C1530      H1539   1.083       .  S
C1531      C1532   1.404       .  A
C1531      H1540   1.083       .  S
C1532      C1538   1.414       .  A
C1532      C1533   1.414       .  A
C1533      C1535   1.403       .  A
C1533      C1534   1.411       .  A
C1534      H1541   1.084       .  S
C1535      C1536   1.400       .  A
C1535      H1542   1.083       .  S
C1536      C1537   1.406       .  A
C1536      H1543   1.083       .  S
C1537      C1538   1.411       .  A
C1538      H1544   1.083       .  S
C1545      C1546   1.405       .  A
C1545      C1550   1.403       .  A
C1546      C1547   1.397       .  A
C1546      H1555   1.084       .  S
C1547      C1548   1.402       .  A
C1547      H1556   1.083       .  S
C1548      C1554   1.403       .  A
C1548      C1549   1.415       .  A
C1549      C1551   1.400       .  A
C1549      C1550   1.401       .  A
C1550      H1557   1.083       .  S
C1551      C1552   1.395       .  A
C1551      H1558   1.083       .  S
C1552      C1553   1.405       .  A
C1552      H1559   1.084       .  S
C1553      C1554   1.404       .  A
C1554      H1560   1.083       .  S
C1561      C1562   1.406       .  A
C1561      C1566   1.408       .  A
C1562      C1563   1.401       .  A
C1562      H1571   1.083       .  S
C1563      C1564   1.404       .  A
C1563      H1572   1.083       .  S
C1564      C1570   1.410       .  A
C1564      C1565   1.414       .  A
C1565      C1567   1.402       .  A
C1565      C1566   1.407       .  A
C1566      H1573   1.084       .  S
C1567      C1568   1.398       .  A
C1567      H1574   1.083       .  S
C1568      C1569   1.406       .  A
C1568      H1575   1.083       .  S
C1569      C1570   1.409       .  A
C1570      H1576   1.084       .  S
C1577      C1578   1.404       .  A
C1577      C1582   1.405       .  A
C1578      C1579   1.398       .  A
C1578      H1587   1.084       .  S
C1579      C1580   1.403       .  A
C1579      H1588   1.082       .  S
C1580      C1586   1.403       .  A
C1580      C1581   1.414       .  A
C1581      C1583   1.403       .  A
C1581      C1582   1.404       .  A
C1582      H1589   1.083       .  S
C1583      C1584   1.398       .  A
C1583      H1590   1.082       .  S
C1584      C1585   1.403       .  A
C1584      H1591   1.084       .  S
C1585      C1586   1.407       .  A
C1586      H1592   1.082       .  S
C1593      C1594   1.407       .  A
C1593      C1598   1.412       .  A
C1594      C1595   1.400       .  A
C1594      H1603   1.083       .  S
C1595      C1596   1.402       .  A
C1595      H1604   1.083       .  S
C1596      C1602   1.412       .  A
C1596      C1597   1.414       .  A
C1597      C1599   1.406       .  A
C1597      C1598   1.416       .  A
C1598      H1605   1.084       .  S
C1599      C1600   1.405       .  A
C1599      H1606   1.083       .  S
C1600      C1601   1.407       .  A
C1600      H1607   1.083       .  S
C1601      C1602   1.410       .  A
C1602      H1608   1.084       .  S
C1609      C1610   1.405       .  A
C1609      C1614   1.409       .  A
C1610      C1611   1.400       .  A
C1610      H1619   1.083       .  S
C1611      C1612   1.403       .  A
C1611      H1620   1.083       .  S
C1612      C1618   1.408       .  A
C1612      C1613   1.414       .  A
C1613      C1615   1.404       .  A
C1613      C1614   1.410       .  A
C1614      H1621   1.084       .  S
C1615      C1616   1.401       .  A
C1615      H1622   1.083       .  S
C1616      C1617   1.406       .  A
C1616      H1623   1.083       .  S
C1617      C1618   1.409       .  A
C1618      H1624   1.083       .  S
C1625      C1626   1.408       .  A
C1625      C1630   1.412       .  A
C1626      C1627   1.407       .  A
C1626      H1635   1.083       .  S
C1627      C1628   1.406       .  A
C1627      H1636   1.083       .  S
C1628      C1634   1.420       .  A
C1628      C1629   1.414       .  A
C1629      C1631   1.403       .  A
C1629      C1630   1.415       .  A
C1630      H1637   1.084       .  S
C1631      C1632   1.401       .  A
C1631      H1638   1.083       .  S
C1632      C1633   1.408       .  A
C1632      H1639   1.083       .  S
C1633      C1634   1.414       .  A
C1634      H1640   1.083       .  S
C1641      C1642   1.404       .  A
C1641      C1646   1.413       .  A
C1642      C1643   1.393       .  A
C1642      H1651   1.083       .  S
C1643      C1644   1.400       .  A
C1643      H1652   1.084       .  S
C1644      C1650   1.401       .  A
C1644      C1645   1.412       .  A
C1645      C1647   1.409       .  A
C1645      C1646   1.414       .  A
C1646      H1653   1.083       .  S
C1647      C1648   1.408       .  A
C1647      H1654   1.083       .  S
C1648      C1649   1.406       .  A
C1648      H1655   1.083       .  S
C1649      C1650   1.407       .  A
C1650      H1656   1.084       .  S
C1657      C1658   1.405       .  A
C1657      C1662   1.410       .  A
C1658      C1659   1.408       .  A
C1658      H1667   1.083       .  S
C1659      C1660   1.409       .  A
C1659      H1668   1.083       .  S
C1660      C1666   1.417       .  A
C1660      C1661   1.413       .  A
C1661      C1663   1.401       .  A
C1661      C1662   1.406       .  A
C1662      H1669   1.084       .  S
C1663      C1664   1.397       .  A
C1663      H1670   1.083       .  S
C1664      C1665   1.407       .  A
C1664      H1671   1.083       .  S
C1665      C1666   1.414       .  A
C1666      H1672   1.083       .  S
C1673      C1674   1.404       .  A
C1673      C1678   1.408       .  A
C1674      C1675   1.406       .  A
C1674      H1683   1.083       .  S
C1675      C1676   1.408       .  A
C1675      H1684   1.083       .  S
C1676      C1682   1.414       .  A
C1676      C1677   1.413       .  A
C1677      C1679   1.401       .  A
C1677      C1678   1.403       .  A
C1678      H1685   1.083       .  S
C1679      C1680   1.395       .  A
C1679      H1686   1.083       .  S
C1680      C1681   1.406       .  A
C1680      H1687   1.084       .  S
C1681      C1682   1.412       .  A
C1682      H1688   1.083       .  S
C1689      C1690   1.401       .  A
C1689      C1694   1.406       .  A
C1690      C1691   1.397       .  A
C1690      H1699   1.084       .  S
C1691      C1692   1.403       .  A
C1691      H1700   1.082       .  S
C1692      C1698   1.402       .  A
C1692      C1693   1.414       .  A
C1693      C1695   1.405       .  A
C1693      C1694   1.404       .  A
C1694      H1701   1.083       .  S
C1695      C1696   1.400       .  A
C1695      H1702   1.082       .  S
C1696      C1697   1.404       .  A
C1696      H1703   1.084       .  S
C1697      C1698   1.403       .  A
C1698      H1704   1.084       .  S
C1705      C1706   1.403       .  A
C1705      C1710   1.405       .  A
C1706      C1707   1.390       .  A
C1706      H1715   1.084       .  S
C1707      C1708   1.398       .  A
C1707      H1716   1.083       .  S
C1708      C1714   1.397       .  A
C1708      C1709   1.415       .  A
C1709      C1711   1.403       .  A
C1709      C1710   1.404       .  A
C1710      H1717   1.083       .  S
C1711      C1712   1.398       .  A
C1711      H1718   1.082       .  S
C1712      C1713   1.405       .  A
C1712      H1719   1.084       .  S
C1713      C1714   1.399       .  A
C1714      H1720   1.083       .  S
C1721      C1722   1.406       .  A
C1721      C1726   1.413       .  A
C1722      C1723   1.395       .  A
C1722      H1731   1.084       .  S
C1723      C1724   1.400       .  A
C1723      H1732   1.083       .  S
C1724      C1730   1.407       .  A
C1724      C1725   1.414       .  A
C1725      C1727   1.407       .  A
C1725      C1726   1.418       .  A
C1726      H1733   1.083       .  S
C1727      C1728   1.408       .  A
C1727      H1734   1.083       .  S
C1728      C1729   1.408       .  A
C1728      H1735   1.083       .  S
C1729      C1730   1.407       .  A
C1730      H1736   1.084       .  S
C1737      C1738   1.403       .  A
C1737      C1742   1.407       .  A
C1738      C1739   1.395       .  A
C1738      H1747   1.084       .  S
C1739      C1740   1.402       .  A
C1739      H1748   1.082       .  S
C1740      C1746   1.401       .  A
C1740      C1741   1.414       .  A
C1741      C1743   1.403       .  A
C1741      C1742   1.403       .  A
C1742      H1749   1.082       .  S
C1743      C1744   1.398       .  A
C1743      H1750   1.082       .  S
C1744      C1745   1.404       .  A
C1744      H1751   1.084       .  S
C1745      C1746   1.405       .  A
C1746      H1752   1.083       .  S
C1753      C1754   1.405       .  A
C1753      C1758   1.408       .  A
C1754      C1755   1.401       .  A
C1754      H1763   1.084       .  S
C1755      C1756   1.404       .  A
C1755      H1764   1.083       .  S
C1756      C1762   1.410       .  A
C1756      C1757   1.414       .  A
C1757      C1759   1.403       .  A
C1757      C1758   1.409       .  A
C1758      H1765   1.083       .  S
C1759      C1760   1.400       .  A
C1759      H1766   1.083       .  S
C1760      C1761   1.406       .  A
C1760      H1767   1.084       .  S
C1761      C1762   1.409       .  A
C1762      H1768   1.083       .  S
C1769      C1770   1.407       .  A
C1769      C1774   1.408       .  A
C1770      C1771   1.412       .  A
C1770      H1779   1.083       .  S
C1771      C1772   1.410       .  A
C1771      H1780   1.083       .  S
C1772      C1778   1.422       .  A
C1772      C1773   1.413       .  A
C1773      C1775   1.399       .  A
C1773      C1774   1.404       .  A
C1774      H1781   1.084       .  S
C1775      C1776   1.393       .  A
C1775      H1782   1.083       .  S
C1776      C1777   1.407       .  A
C1776      H1783   1.083       .  S
C1777      C1778   1.416       .  A
C1778      H1784   1.083       .  S
C1785      C1786   1.404       .  A
C1785      C1790   1.405       .  A
C1786      C1787   1.402       .  A
C1786      H1795   1.083       .  S
C1787      C1788   1.405       .  A
C1787      H1796   1.083       .  S
C1788      C1794   1.407       .  A
C1788      C1789   1.414       .  A
C1789      C1791   1.401       .  A
C1789      C1790   1.399       .  A
C1790      H1797   1.083       .  S
C1791      C1792   1.394       .  A
C1791      H1798   1.083       .  S
C1792      C1793   1.402       .  A
C1792      H1799   1.084       .  S
C1793      C1794   1.406       .  A
C1794      H1800   1.083       .  S
C1801      C1802   1.407       .  A
C1801      C1806   1.409       .  A
C1802      C1803   1.401       .  A
C1802      H1811   1.083       .  S
C1803      C1804   1.404       .  A
C1803      H1812   1.083       .  S
C1804      C1810   1.411       .  A
C1804      C1805   1.414       .  A
C1805      C1807   1.404       .  A
C1805      C1806   1.411       .  A
C1806      H1813   1.084       .  S
C1807      C1808   1.402       .  A
C1807      H1814   1.083       .  S
C1808      C1809   1.406       .  A
C1808      H1815   1.083       .  S
C1809      C1810   1.410       .  A
C1810      H1816   1.084       .  S
C1817      C1818   1.407       .  A
C1817      C1822   1.415       .  A
C1818      C1819   1.399       .  A
C1818      H1827   1.083       .  S
C1819      C1820   1.403       .  A
C1819      H1828   1.083       .  S
C1820      C1826   1.409       .  A
C1820      C1821   1.412       .  A
C1821      C1823   1.409       .  A
C1821      C1822   1.419       .  A
C1822      H1829   1.084       .  S
C1823      C1824   1.410       .  A
C1823      H1830   1.083       .  S
C1824      C1825   1.406       .  A
C1824      H1831   1.083       .  S
C1825      C1826   1.412       .  A
C1826      H1832   1.084       .  S
C1833      C1834   1.405       .  A
C1833      C1838   1.408       .  A
C1834      C1835   1.405       .  A
C1834      H1843   1.083       .  S
C1835      C1836   1.407       .  A
C1835      H1844   1.083       .  S
C1836      C1842   1.414       .  A
C1836      C1837   1.413       .  A
C1837      C1839   1.401       .  A
C1837      C1838   1.405       .  A
C1838      H1845   1.084       .  S
C1839      C1840   1.396       .  A
C1839      H1846   1.083       .  S
C1840      C1841   1.406       .  A
C1840      H1847   1.083       .  S
C1841      C1842   1.411       .  A
C1842      H1848   1.083       .  S
C1849      C1850   1.404       .  A
C1849      C1854   1.406       .  A
C1850      C1851   1.400       .  A
C1850      H1859   1.083       .  S
C1851      C1852   1.405       .  A
C1851      H1860   1.082       .  S
C1852      C1858   1.405       .  A
C1852      C1853   1.413       .  A
C1853      C1855   1.404       .  A
C1853      C1854   1.403       .  A
C1854      H1861   1.083       .  S
C1855      C1856   1.398       .  A
C1855      H1862   1.083       .  S
C1856      C1857   1.401       .  A
C1856      H1863   1.084       .  S
C1857      C1858   1.407       .  A
C1858      H1864   1.083       .  S
C1865      C1866   1.405       .  A
C1865      C1870   1.415       .  A
C1866      C1867   1.394       .  A
C1866      H1875   1.083       .  S
C1867      C1868   1.400       .  A
C1867      H1876   1.083       .  S
C1868      C1874   1.403       .  A
C1868      C1869   1.413       .  A
C1869      C1871   1.409       .  A
C1869      C1870   1.417       .  A
C1870      H1877   1.083       .  S
C1871      C1872   1.408       .  A
C1871      H1878   1.083       .  S
C1872      C1873   1.407       .  A
C1872      H1879   1.083       .  S
C1873      C1874   1.406       .  A
C1874      H1880   1.084       .  S
C1881      C1882   1.407       .  A
C1881      C1886   1.412       .  A
C1882      C1883   1.399       .  A
C1882      H1891   1.083       .  S
C1883      C1884   1.401       .  A
C1883      H1892   1.084       .  S
C1884      C1890   1.412       .  A
C1884      C1885   1.415       .  A
C1885      C1887   1.405       .  A
C1885      C1886   1.417       .  A
C1886      H1893   1.084       .  S
C1887      C1888   1.404       .  A
C1887      H1894   1.083       .  S
C1888      C1889   1.408       .  A
C1888      H1895   1.083       .  S
C1889      C1890   1.407       .  A
C1890      H1896   1.084       .  S
C1897      C1898   1.406       .  A
C1897      C1902   1.414       .  A
C1898      C1899   1.393       .  A
C1898      H1907   1.083       .  S
C1899      C1900   1.399       .  A
C1899      H1908   1.083       .  S
C1900      C1906   1.402       .  A
C1900      C1901   1.413       .  A
C1901      C1903   1.409       .  A
C1901      C1902   1.418       .  A
C1902      H1909   1.083       .  S
C1903      C1904   1.410       .  A
C1903      H1910   1.083       .  S
C1904      C1905   1.406       .  A
C1904      H1911   1.083       .  S
C1905      C1906   1.407       .  A
C1906      H1912   1.084       .  S
C1913      C1914   1.407       .  A
C1913      C1918   1.410       .  A
C1914      C1915   1.400       .  A
C1914      H1923   1.083       .  S
C1915      C1916   1.402       .  A
C1915      H1924   1.083       .  S
C1916      C1922   1.409       .  A
C1916      C1917   1.414       .  A
C1917      C1919   1.404       .  A
C1917      C1918   1.413       .  A
C1918      H1925   1.084       .  S
C1919      C1920   1.402       .  A
C1919      H1926   1.083       .  S
C1920      C1921   1.406       .  A
C1920      H1927   1.083       .  S
C1921      C1922   1.409       .  A
C1922      H1928   1.084       .  S
C1929      C1930   1.406       .  A
C1929      C1934   1.409       .  A
C1930      C1931   1.410       .  A
C1930      H1939   1.083       .  S
C1931      C1932   1.410       .  A
C1931      H1940   1.083       .  S
C1932      C1938   1.420       .  A
C1932      C1933   1.413       .  A
C1933      C1935   1.400       .  A
C1933      C1934   1.406       .  A
C1934      H1941   1.083       .  S
C1935      C1936   1.395       .  A
C1935      H1942   1.083       .  S
C1936      C1937   1.407       .  A
C1936      H1943   1.084       .  S
C1937      C1938   1.415       .  A
C1938      H1944   1.083       .  S
C1945      C1946   1.404       .  A
C1945      C1950   1.405       .  A
C1946      C1947   1.401       .  A
C1946      H1955   1.084       .  S
C1947      C1948   1.405       .  A
C1947      H1956   1.083       .  S
C1948      C1954   1.406       .  A
C1948      C1949   1.414       .  A
C1949      C1951   1.401       .  A
C1949      C1950   1.401       .  A
C1950      H1957   1.084       .  S
C1951      C1952   1.395       .  A
C1951      H1958   1.083       .  S
C1952      C1953   1.405       .  A
C1952      H1959   1.084       .  S
C1953      C1954   1.407       .  A
C1954      H1960   1.083       .  S
C1961      C1962   1.406       .  A
C1961      C1966   1.408       .  A
C1962      C1963   1.408       .  A
C1962      H1971   1.083       .  S
C1963      C1964   1.409       .  A
C1963      H1972   1.083       .  S
C1964      C1970   1.414       .  A
C1964      C1965   1.412       .  A
C1965      C1967   1.401       .  A
C1965      C1966   1.402       .  A
C1966      H1973   1.084       .  S
C1967      C1968   1.395       .  A
C1967      H1974   1.083       .  S
C1968      C1969   1.404       .  A
C1968      H1975   1.084       .  S
C1969      C1970   1.414       .  A
C1970      H1976   1.083       .  S
C1977      C1978   1.405       .  A
C1977      C1982   1.408       .  A
C1978      C1979   1.392       .  A
C1978      H1987   1.084       .  S
C1979      C1980   1.399       .  A
C1979      H1988   1.083       .  S
C1980      C1986   1.399       .  A
C1980      C1981   1.414       .  A
C1981      C1983   1.405       .  A
C1981      C1982   1.408       .  A
C1982      H1989   1.083       .  S
C1983      C1984   1.402       .  A
C1983      H1990   1.083       .  S
C1984      C1985   1.405       .  A
C1984      H1991   1.083       .  S
C1985      C1986   1.403       .  A
C1986      H1992   1.084       .  S
C1993      C1994   1.404       .  A
C1993      C1998   1.405       .  A
C1994      C1995   1.393       .  A
C1994      H2003   1.083       .  S
C1995      C1996   1.400       .  A
C1995      H2004   1.083       .  S
C1996      C2002   1.398       .  A
C1996      C1997   1.414       .  A
C1997      C1999   1.403       .  A
C1997      C1998   1.401       .  A
C1998      H2005   1.084       .  S
C1999      C2000   1.398       .  A
C1999      H2006   1.083       .  S
C2000      C2001   1.404       .  A
C2000      H2007   1.083       .  S
C2001      C2002   1.403       .  A
C2002      H2008   1.084       .  S
C2009      C2010   1.406       .  A
C2009      C2014   1.410       .  A
C2010      C2011   1.399       .  A
C2010      H2019   1.083       .  S
C2011      C2012   1.402       .  A
C2011      H2020   1.083       .  S
C2012      C2018   1.409       .  A
C2012      C2013   1.414       .  A
C2013      C2015   1.405       .  A
C2013      C2014   1.413       .  A
C2014      H2021   1.083       .  S
C2015      C2016   1.403       .  A
C2015      H2022   1.083       .  S
C2016      C2017   1.406       .  A
C2016      H2023   1.083       .  S
C2017      C2018   1.409       .  A
C2018      H2024   1.084       .  S
C2025      C2026   1.406       .  A
C2025      C2030   1.410       .  A
C2026      C2027   1.403       .  A
C2026      H2035   1.083       .  S
C2027      C2028   1.405       .  A
C2027      H2036   1.083       .  S
C2028      C2034   1.414       .  A
C2028      C2029   1.413       .  A
C2029      C2031   1.403       .  A
C2029      C2030   1.411       .  A
C2030      H2037   1.084       .  S
C2031      C2032   1.401       .  A
C2031      H2038   1.083       .  S
C2032      C2033   1.407       .  A
C2032      H2039   1.083       .  S
C2033      C2034   1.412       .  A
C2034      H2040   1.083       .  S
C2041      C2042   1.404       .  A
C2041      C2046   1.406       .  A
C2042      C2043   1.395       .  A
C2042      H2051   1.084       .  S
C2043      C2044   1.401       .  A
C2043      H2052   1.083       .  S
C2044      C2050   1.400       .  A
C2044      C2045   1.414       .  A
C2045      C2047   1.403       .  A
C2045      C2046   1.403       .  A
C2046      H2053   1.083       .  S
C2047      C2048   1.398       .  A
C2047      H2054   1.083       .  S
C2048      C2049   1.405       .  A
C2048      H2055   1.083       .  S
C2049      C2050   1.403       .  A
C2050      H2056   1.083       .  S
C2057      C2058   1.403       .  A
C2057      C2062   1.406       .  A
C2058      C2059   1.395       .  A
C2058      H2067   1.084       .  S
C2059      C2060   1.401       .  A
C2059      H2068   1.083       .  S
C2060      C2066   1.399       .  A
C2060      C2061   1.414       .  A
C2061      C2063   1.404       .  A
C2061      C2062   1.403       .  A
C2062      H2069   1.083       .  S
C2063      C2064   1.398       .  A
C2063      H2070   1.082       .  S
C2064      C2065   1.404       .  A
C2064      H2071   1.084       .  S
C2065      C2066   1.403       .  A
C2066      H2072   1.084       .  S
C2073      C2074   1.405       .  A
C2073      C2078   1.411       .  A
C2074      C2075   1.399       .  A
C2074      H2083   1.083       .  S
C2075      C2076   1.403       .  A
C2075      H2084   1.083       .  S
C2076      C2082   1.409       .  A
C2076      C2077   1.414       .  A
C2077      C2079   1.405       .  A
C2077      C2078   1.412       .  A
C2078      H2085   1.083       .  S
C2079      C2080   1.403       .  A
C2079      H2086   1.083       .  S
C2080      C2081   1.407       .  A
C2080      H2087   1.083       .  S
C2081      C2082   1.408       .  A
C2082      H2088   1.084       .  S
C2089      C2090   1.407       .  A
C2089      C2094   1.411       .  A
C2090      C2091   1.402       .  A
C2090      H2099   1.083       .  S
C2091      C2092   1.404       .  A
C2091      H2100   1.083       .  S
C2092      C2098   1.412       .  A
C2092      C2093   1.414       .  A
C2093      C2095   1.405       .  A
C2093      C2094   1.413       .  A
C2094      H2101   1.084       .  S
C2095      C2096   1.402       .  A
C2095      H2102   1.083       .  S
C2096      C2097   1.406       .  A
C2096      H2103   1.083       .  S
C2097      C2098   1.411       .  A
C2098      H2104   1.084       .  S
C2105      C2106   1.406       .  A
C2105      C2110   1.411       .  A
C2106      C2107   1.398       .  A
C2106      H2115   1.083       .  S
C2107      C2108   1.402       .  A
C2107      H2116   1.083       .  S
C2108      C2114   1.406       .  A
C2108      C2109   1.413       .  A
C2109      C2111   1.407       .  A
C2109      C2110   1.413       .  A
C2110      H2117   1.083       .  S
C2111      C2112   1.405       .  A
C2111      H2118   1.083       .  S
C2112      C2113   1.405       .  A
C2112      H2119   1.083       .  S
C2113      C2114   1.409       .  A
C2114      H2120   1.084       .  S
C2121      C2122   1.407       .  A
C2121      C2126   1.409       .  A
C2122      C2123   1.402       .  A
C2122      H2131   1.083       .  S
C2123      C2124   1.404       .  A
C2123      H2132   1.083       .  S
C2124      C2130   1.413       .  A
C2124      C2125   1.414       .  A
C2125      C2127   1.403       .  A
C2125      C2126   1.412       .  A
C2126      H2133   1.084       .  S
C2127      C2128   1.401       .  A
C2127      H2134   1.084       .  S
C2128      C2129   1.407       .  A
C2128      H2135   1.083       .  S
C2129      C2130   1.410       .  A
C2130      H2136   1.084       .  S
C2137      C2138   1.407       .  A
C2137      C2142   1.410       .  A
C2138      C2139   1.404       .  A
C2138      H2147   1.083       .  S
C2139      C2140   1.404       .  A
C2139      H2148   1.083       .  S
C2140      C2146   1.416       .  A
C2140      C2141   1.415       .  A
C2141      C2143   1.403       .  A
C2141      C2142   1.414       .  A
C2142      H2149   1.084       .  S
C2143      C2144   1.401       .  A
C2143      H2150   1.083       .  S
C2144      C2145   1.408       .  A
C2144      H2151   1.083       .  S
C2145      C2146   1.411       .  A
C2146      H2152   1.084       .  S
C2153      C2154   1.405       .  A
C2153      C2158   1.413       .  A
C2154      C2155   1.397       .  A
C2154      H2163   1.083       .  S
C2155      C2156   1.402       .  A
C2155      H2164   1.083       .  S
C2156      C2162   1.407       .  A
C2156      C2157   1.413       .  A
C2157      C2159   1.407       .  A
C2157      C2158   1.415       .  A
C2158      H2165   1.083       .  S
C2159      C2160   1.407       .  A
C2159      H2166   1.083       .  S
C2160      C2161   1.407       .  A
C2160      H2167   1.083       .  S
C2161      C2162   1.408       .  A
C2162      H2168   1.084       .  S
C2169      C2170   1.405       .  A
C2169      C2174   1.406       .  A
C2170      C2171   1.399       .  A
C2170      H2179   1.083       .  S
C2171      C2172   1.403       .  A
C2171      H2180   1.083       .  S
C2172      C2178   1.407       .  A
C2172      C2173   1.414       .  A
C2173      C2175   1.401       .  A
C2173      C2174   1.405       .  A
C2174      H2181   1.083       .  S
C2175      C2176   1.397       .  A
C2175      H2182   1.083       .  S
C2176      C2177   1.406       .  A
C2176      H2183   1.083       .  S
C2177      C2178   1.406       .  A
C2178      H2184   1.083       .  S
C2185      C2186   1.407       .  A
C2185      C2190   1.407       .  A
C2186      C2187   1.406       .  A
C2186      H2195   1.083       .  S
C2187      C2188   1.407       .  A
C2187      H2196   1.083       .  S
C2188      C2194   1.417       .  A
C2188      C2189   1.414       .  A
C2189      C2191   1.401       .  A
C2189      C2190   1.409       .  A
C2190      H2197   1.084       .  S
C2191      C2192   1.397       .  A
C2191      H2198   1.083       .  S
C2192      C2193   1.407       .  A
C2192      H2199   1.084       .  S
C2193      C2194   1.414       .  A
C2194      H2200   1.083       .  S
C2201      C2202   1.406       .  A
C2201      C2206   1.409       .  A
C2202      C2203   1.403       .  A
C2202      H2211   1.083       .  S
C2203      C2204   1.405       .  A
C2203      H2212   1.083       .  S
C2204      C2210   1.410       .  A
C2204      C2205   1.413       .  A
C2205      C2207   1.403       .  A
C2205      C2206   1.407       .  A
C2206      H2213   1.084       .  S
C2207      C2208   1.398       .  A
C2207      H2214   1.083       .  S
C2208      C2209   1.405       .  A
C2208      H2215   1.083       .  S
C2209      C2210   1.410       .  A
C2210      H2216   1.083       .  S
C2217      C2218   1.406       .  A
C2217      C2222   1.410       .  A
C2218      C2219   1.403       .  A
C2218      H2227   1.083       .  S
C2219      C2220   1.405       .  A
C2219      H2228   1.083       .  S
C2220      C2226   1.415       .  A
C2220      C2221   1.414       .  A
C2221      C2223   1.403       .  A
C2221      C2222   1.412       .  A
C2222      H2229   1.084       .  S
C2223      C2224   1.401       .  A
C2223      H2230   1.083       .  S
C2224      C2225   1.409       .  A
C2224      H2231   1.083       .  S
C2225      C2226   1.411       .  A
C2226      H2232   1.084       .  S
C2233      C2234   1.404       .  A
C2233      C2238   1.402       .  A
C2234      C2235   1.401       .  A
C2234      H2243   1.084       .  S
C2235      C2236   1.405       .  A
C2235      H2244   1.082       .  S
C2236      C2242   1.406       .  A
C2236      C2237   1.414       .  A
C2237      C2239   1.399       .  A
C2237      C2238   1.397       .  A
C2238      H2245   1.083       .  S
C2239      C2240   1.391       .  A
C2239      H2246   1.083       .  S
C2240      C2241   1.404       .  A
C2240      H2247   1.084       .  S
C2241      C2242   1.406       .  A
C2242      H2248   1.082       .  S
C2249      C2250   1.407       .  A
C2249      C2254   1.407       .  A
C2250      C2251   1.407       .  A
C2250      H2259   1.083       .  S
C2251      C2252   1.407       .  A
C2251      H2260   1.083       .  S
C2252      C2258   1.418       .  A
C2252      C2253   1.414       .  A
C2253      C2255   1.399       .  A
C2253      C2254   1.405       .  A
C2254      H2261   1.084       .  S
C2255      C2256   1.394       .  A
C2255      H2262   1.083       .  S
C2256      C2257   1.407       .  A
C2256      H2263   1.083       .  S
C2257      C2258   1.413       .  A
C2258      H2264   1.083       .  S
C2265      C2266   1.404       .  A
C2265      C2270   1.405       .  A
C2266      C2267   1.402       .  A
C2266      H2275   1.083       .  S
C2267      C2268   1.405       .  A
C2267      H2276   1.082       .  S
C2268      C2274   1.408       .  A
C2268      C2269   1.414       .  A
C2269      C2271   1.400       .  A
C2269      C2270   1.400       .  A
C2270      H2277   1.084       .  S
C2271      C2272   1.393       .  A
C2271      H2278   1.083       .  S
C2272      C2273   1.404       .  A
C2272      H2279   1.084       .  S
C2273      C2274   1.408       .  A
C2274      H2280   1.083       .  S
C2281      C2282   1.404       .  A
C2281      C2286   1.401       .  A
C2282      C2283   1.403       .  A
C2282      H2291   1.084       .  S
C2283      C2284   1.406       .  A
C2283      H2292   1.082       .  S
C2284      C2290   1.409       .  A
C2284      C2285   1.415       .  A
C2285      C2287   1.398       .  A
C2285      C2286   1.398       .  A
C2286      H2293   1.084       .  S
C2287      C2288   1.391       .  A
C2287      H2294   1.082       .  S
C2288      C2289   1.406       .  A
C2288      H2295   1.084       .  S
C2289      C2290   1.408       .  A
C2290      H2296   1.082       .  S
C2297      C2298   1.407       .  A
C2297      C2302   1.406       .  A
C2298      C2299   1.403       .  A
C2298      H2307   1.083       .  S
C2299      C2300   1.405       .  A
C2299      H2308   1.083       .  S
C2300      C2306   1.412       .  A
C2300      C2301   1.414       .  A
C2301      C2303   1.401       .  A
C2301      C2302   1.407       .  A
C2302      H2309   1.084       .  S
C2303      C2304   1.398       .  A
C2303      H2310   1.083       .  S
C2304      C2305   1.406       .  A
C2304      H2311   1.083       .  S
C2305      C2306   1.411       .  A
C2306      H2312   1.084       .  S
C2313      C2314   1.404       .  A
C2313      C2318   1.403       .  A
C2314      C2315   1.395       .  A
C2314      H2323   1.084       .  S
C2315      C2316   1.401       .  A
C2315      H2324   1.083       .  S
C2316      C2322   1.400       .  A
C2316      C2317   1.415       .  A
C2317      C2319   1.402       .  A
C2317      C2318   1.401       .  A
C2318      H2325   1.083       .  S
C2319      C2320   1.396       .  A
C2319      H2326   1.082       .  S
C2320      C2321   1.404       .  A
C2320      H2327   1.084       .  S
C2321      C2322   1.402       .  A
C2322      H2328   1.084       .  S
C2329      C2330   1.407       .  A
C2329      C2334   1.411       .  A
C2330      C2331   1.402       .  A
C2330      H2339   1.083       .  S
C2331      C2332   1.403       .  A
C2331      H2340   1.083       .  S
C2332      C2338   1.412       .  A
C2332      C2333   1.414       .  A
C2333      C2335   1.403       .  A
C2333      C2334   1.412       .  A
C2334      H2341   1.083       .  S
C2335      C2336   1.401       .  A
C2335      H2342   1.083       .  S
C2336      C2337   1.408       .  A
C2336      H2343   1.083       .  S
C2337      C2338   1.409       .  A
C2338      H2344   1.084       .  S
C2345      C2346   1.405       .  A
C2345      C2350   1.405       .  A
C2346      C2347   1.400       .  A
C2346      H2355   1.083       .  S
C2347      C2348   1.403       .  A
C2347      H2356   1.083       .  S
C2348      C2354   1.406       .  A
C2348      C2349   1.414       .  A
C2349      C2351   1.401       .  A
C2349      C2350   1.403       .  A
C2350      H2357   1.084       .  S
C2351      C2352   1.395       .  A
C2351      H2358   1.083       .  S
C2352      C2353   1.405       .  A
C2352      H2359   1.084       .  S
C2353      C2354   1.406       .  A
C2354      H2360   1.083       .  S
C2361      C2362   1.407       .  A
C2361      C2366   1.408       .  A
C2362      C2363   1.402       .  A
C2362      H2371   1.083       .  S
C2363      C2364   1.404       .  A
C2363      H2372   1.083       .  S
C2364      C2370   1.413       .  A
C2364      C2365   1.415       .  A
C2365      C2367   1.402       .  A
C2365      C2366   1.410       .  A
C2366      H2373   1.084       .  S
C2367      C2368   1.399       .  A
C2367      H2374   1.083       .  S
C2368      C2369   1.407       .  A
C2368      H2375   1.083       .  S
C2369      C2370   1.409       .  A
C2370      H2376   1.084       .  S
C2377      C2378   1.406       .  A
C2377      C2382   1.412       .  A
C2378      C2379   1.397       .  A
C2378      H2387   1.083       .  S
C2379      C2380   1.402       .  A
C2379      H2388   1.084       .  S
C2380      C2386   1.405       .  A
C2380      C2381   1.413       .  A
C2381      C2383   1.408       .  A
C2381      C2382   1.414       .  A
C2382      H2389   1.084       .  S
C2383      C2384   1.406       .  A
C2383      H2390   1.083       .  S
C2384      C2385   1.405       .  A
C2384      H2391   1.083       .  S
C2385      C2386   1.409       .  A
C2386      H2392   1.084       .  S
C2393      C2394   1.407       .  A
C2393      C2398   1.411       .  A
C2394      C2395   1.403       .  A
C2394      H2403   1.083       .  S
C2395      C2396   1.405       .  A
C2395      H2404   1.083       .  S
C2396      C2402   1.414       .  A
C2396      C2397   1.414       .  A
C2397      C2399   1.404       .  A
C2397      C2398   1.413       .  A
C2398      H2405   1.084       .  S
C2399      C2400   1.401       .  A
C2399      H2406   1.083       .  S
C2400      C2401   1.406       .  A
C2400      H2407   1.083       .  S
C2401      C2402   1.411       .  A
C2402      H2408   1.084       .  S
C2409      C2410   1.405       .  A
C2409      C2414   1.407       .  A
C2410      C2411   1.401       .  A
C2410      H2419   1.083       .  S
C2411      C2412   1.404       .  A
C2411      H2420   1.083       .  S
C2412      C2418   1.409       .  A
C2412      C2413   1.414       .  A
C2413      C2415   1.403       .  A
C2413      C2414   1.410       .  A
C2414      H2421   1.084       .  S
C2415      C2416   1.401       .  A
C2415      H2422   1.083       .  S
C2416      C2417   1.406       .  A
C2416      H2423   1.083       .  S
C2417      C2418   1.409       .  A
C2418      H2424   1.083       .  S
C2425      C2426   1.406       .  A
C2425      C2430   1.417       .  A
C2426      C2427   1.397       .  A
C2426      H2435   1.083       .  S
C2427      C2428   1.401       .  A
C2427      H2436   1.083       .  S
C2428      C2434   1.407       .  A
C2428      C2429   1.412       .  A
C2429      C2431   1.411       .  A
C2429      C2430   1.420       .  A
C2430      H2437   1.083       .  S
C2431      C2432   1.412       .  A
C2431      H2438   1.083       .  S
C2432      C2433   1.407       .  A
C2432      H2439   1.083       .  S
C2433      C2434   1.410       .  A
C2434      H2440   1.084       .  S
C2441      C2442   1.407       .  A
C2441      C2446   1.409       .  A
C2442      C2443   1.399       .  A
C2442      H2451   1.084       .  S
C2443      C2444   1.401       .  A
C2443      H2452   1.083       .  S
C2444      C2450   1.409       .  A
C2444      C2445   1.415       .  A
C2445      C2447   1.404       .  A
C2445      C2446   1.412       .  A
C2446      H2453   1.083       .  S
C2447      C2448   1.402       .  A
C2447      H2454   1.083       .  S
C2448      C2449   1.406       .  A
C2448      H2455   1.083       .  S
C2449      C2450   1.407       .  A
C2450      H2456   1.083       .  S
C2457      C2458   1.403       .  A
C2457      C2462   1.409       .  A
C2458      C2459   1.394       .  A
C2458      H2467   1.084       .  S
C2459      C2460   1.401       .  A
C2459      H2468   1.082       .  S
C2460      C2466   1.401       .  A
C2460      C2461   1.413       .  A
C2461      C2463   1.407       .  A
C2461      C2462   1.410       .  A
C2462      H2469   1.082       .  S
C2463      C2464   1.404       .  A
C2463      H2470   1.082       .  S
C2464      C2465   1.404       .  A
C2464      H2471   1.084       .  S
C2465      C2466   1.405       .  A
C2466      H2472   1.083       .  S
C2473      C2474   1.405       .  A
C2473      C2478   1.404       .  A
C2474      C2475   1.392       .  A
C2474      H2483   1.084       .  S
C2475      C2476   1.399       .  A
C2475      H2484   1.083       .  S
C2476      C2482   1.397       .  A
C2476      C2477   1.415       .  A
C2477      C2479   1.402       .  A
C2477      C2478   1.402       .  A
C2478      H2485   1.083       .  S
C2479      C2480   1.397       .  A
C2479      H2486   1.083       .  S
C2480      C2481   1.404       .  A
C2480      H2487   1.084       .  S
C2481      C2482   1.402       .  A
C2482      H2488   1.084       .  S
C2489      C2490   1.408       .  A
C2489      C2494   1.409       .  A
C2490      C2491   1.401       .  A
C2490      H2499   1.083       .  S
C2491      C2492   1.404       .  A
C2491      H2500   1.083       .  S
C2492      C2498   1.413       .  A
C2492      C2493   1.414       .  A
C2493      C2495   1.404       .  A
C2493      C2494   1.413       .  A
C2494      H2501   1.084       .  S
C2495      C2496   1.402       .  A
C2495      H2502   1.083       .  S
C2496      C2497   1.406       .  A
C2496      H2503   1.083       .  S
C2497      C2498   1.412       .  A
C2498      H2504   1.084       .  S
C2505      C2506   1.402       .  A
C2505      C2510   1.404       .  A
C2506      C2507   1.399       .  A
C2506      H2515   1.084       .  S
C2507      C2508   1.404       .  A
C2507      H2516   1.083       .  S
C2508      C2514   1.404       .  A
C2508      C2509   1.414       .  A
C2509      C2511   1.402       .  A
C2509      C2510   1.400       .  A
C2510      H2517   1.084       .  S
C2511      C2512   1.396       .  A
C2511      H2518   1.083       .  S
C2512      C2513   1.404       .  A
C2512      H2519   1.084       .  S
C2513      C2514   1.407       .  A
C2514      H2520   1.084       .  S
C2521      C2522   1.407       .  A
C2521      C2526   1.412       .  A
C2522      C2523   1.403       .  A
C2522      H2531   1.083       .  S
C2523      C2524   1.405       .  A
C2523      H2532   1.083       .  S
C2524      C2530   1.415       .  A
C2524      C2525   1.414       .  A
C2525      C2527   1.405       .  A
C2525      C2526   1.415       .  A
C2526      H2533   1.084       .  S
C2527      C2528   1.404       .  A
C2527      H2534   1.083       .  S
C2528      C2529   1.407       .  A
C2528      H2535   1.083       .  S
C2529      C2530   1.412       .  A
C2530      H2536   1.084       .  S
C2537      C2538   1.407       .  A
C2537      C2542   1.412       .  A
C2538      C2539   1.396       .  A
C2538      H2547   1.083       .  S
C2539      C2540   1.400       .  A
C2539      H2548   1.083       .  S
C2540      C2546   1.406       .  A
C2540      C2541   1.414       .  A
C2541      C2543   1.407       .  A
C2541      C2542   1.416       .  A
C2542      H2549   1.083       .  S
C2543      C2544   1.406       .  A
C2543      H2550   1.083       .  S
C2544      C2545   1.407       .  A
C2544      H2551   1.083       .  S
C2545      C2546   1.407       .  A
C2546      H2552   1.084       .  S
C2553      C2554   1.405       .  A
C2553      C2558   1.405       .  A
C2554      C2555   1.392       .  A
C2554      H2563   1.084       .  S
C2555      C2556   1.399       .  A
C2555      H2564   1.083       .  S
C2556      C2562   1.399       .  A
C2556      C2557   1.415       .  A
C2557      C2559   1.403       .  A
C2557      C2558   1.404       .  A
C2558      H2565   1.083       .  S
C2559      C2560   1.398       .  A
C2559      H2566   1.082       .  S
C2560      C2561   1.405       .  A
C2560      H2567   1.084       .  S
C2561      C2562   1.402       .  A
C2562      H2568   1.084       .  S
C2569      C2570   1.406       .  A
C2569      C2574   1.412       .  A
C2570      C2571   1.398       .  A
C2570      H2579   1.084       .  S
C2571      C2572   1.401       .  A
C2571      H2580   1.083       .  S
C2572      C2578   1.408       .  A
C2572      C2573   1.414       .  A
C2573      C2575   1.405       .  A
C2573      C2574   1.414       .  A
C2574      H2581   1.083       .  S
C2575      C2576   1.404       .  A
C2575      H2582   1.083       .  S
C2576      C2577   1.407       .  A
C2576      H2583   1.083       .  S
C2577      C2578   1.408       .  A
C2578      H2584   1.084       .  S
C2585      C2586   1.404       .  A
C2585      C2590   1.402       .  A
C2586      C2587   1.396       .  A
C2586      H2595   1.084       .  S
C2587      C2588   1.403       .  A
C2587      H2596   1.082       .  S
C2588      C2594   1.400       .  A
C2588      C2589   1.414       .  A
C2589      C2591   1.400       .  A
C2589      C2590   1.397       .  A
C2590      H2597   1.083       .  S
C2591      C2592   1.393       .  A
C2591      H2598   1.082       .  S
C2592      C2593   1.403       .  A
C2592      H2599   1.084       .  S
C2593      C2594   1.404       .  A
C2594      H2600   1.083       .  S
C2601      C2602   1.407       .  A
C2601      C2606   1.408       .  A
C2602      C2603   1.399       .  A
C2602      H2611   1.083       .  S
C2603      C2604   1.402       .  A
C2603      H2612   1.083       .  S
C2604      C2610   1.408       .  A
C2604      C2605   1.414       .  A
C2605      C2607   1.404       .  A
C2605      C2606   1.411       .  A
C2606      H2613   1.084       .  S
C2607      C2608   1.402       .  A
C2607      H2614   1.083       .  S
C2608      C2609   1.407       .  A
C2608      H2615   1.083       .  S
C2609      C2610   1.408       .  A
C2610      H2616   1.084       .  S
C2617      C2618   1.404       .  A
C2617      C2622   1.409       .  A
C2618      C2619   1.404       .  A
C2618      H2627   1.083       .  S
C2619      C2620   1.406       .  A
C2619      H2628   1.083       .  S
C2620      C2626   1.412       .  A
C2620      C2621   1.413       .  A
C2621      C2623   1.401       .  A
C2621      C2622   1.405       .  A
C2622      H2629   1.083       .  S
C2623      C2624   1.397       .  A
C2623      H2630   1.083       .  S
C2624      C2625   1.407       .  A
C2624      H2631   1.083       .  S
C2625      C2626   1.410       .  A
C2626      H2632   1.083       .  S
C2633      C2634   1.403       .  A
C2633      C2638   1.405       .  A
C2634      C2635   1.401       .  A
C2634      H2643   1.084       .  S
C2635      C2636   1.405       .  A
C2635      H2644   1.082       .  S
C2636      C2642   1.404       .  A
C2636      C2637   1.413       .  A
C2637      C2639   1.403       .  A
C2637      C2638   1.400       .  A
C2638      H2645   1.083       .  S
C2639      C2640   1.397       .  A
C2639      H2646   1.082       .  S
C2640      C2641   1.403       .  A
C2640      H2647   1.084       .  S
C2641      C2642   1.407       .  A
C2642      H2648   1.083       .  S
C2649      C2650   1.406       .  A
C2649      C2654   1.409       .  A
C2650      C2651   1.399       .  A
C2650      H2659   1.083       .  S
C2651      C2652   1.402       .  A
C2651      H2660   1.083       .  S
C2652      C2658   1.410       .  A
C2652      C2653   1.414       .  A
C2653      C2655   1.403       .  A
C2653      C2654   1.411       .  A
C2654      H2661   1.084       .  S
C2655      C2656   1.401       .  A
C2655      H2662   1.083       .  S
C2656      C2657   1.406       .  A
C2656      H2663   1.083       .  S
C2657      C2658   1.408       .  A
C2658      H2664   1.084       .  S
C2665      C2666   1.407       .  A
C2665      C2670   1.409       .  A
C2666      C2667   1.403       .  A
C2666      H2675   1.083       .  S
C2667      C2668   1.404       .  A
C2667      H2676   1.083       .  S
C2668      C2674   1.414       .  A
C2668      C2669   1.415       .  A
C2669      C2671   1.402       .  A
C2669      C2670   1.411       .  A
C2670      H2677   1.084       .  S
C2671      C2672   1.399       .  A
C2671      H2678   1.083       .  S
C2672      C2673   1.407       .  A
C2672      H2679   1.083       .  S
C2673      C2674   1.410       .  A
C2674      H2680   1.084       .  S
C2681      C2682   1.406       .  A
C2681      C2686   1.412       .  A
C2682      C2683   1.397       .  A
C2682      H2691   1.083       .  S
C2683      C2684   1.402       .  A
C2683      H2692   1.083       .  S
C2684      C2690   1.406       .  A
C2684      C2685   1.413       .  A
C2685      C2687   1.407       .  A
C2685      C2686   1.414       .  A
C2686      H2693   1.083       .  S
C2687      C2688   1.405       .  A
C2687      H2694   1.083       .  S
C2688      C2689   1.404       .  A
C2688      H2695   1.083       .  S
C2689      C2690   1.409       .  A
C2690      H2696   1.083       .  S
C2697      C2698   1.407       .  A
C2697      C2702   1.407       .  A
C2698      C2699   1.411       .  A
C2698      H2707   1.083       .  S
C2699      C2700   1.410       .  A
C2699      H2708   1.083       .  S
C2700      C2706   1.419       .  A
C2700      C2701   1.413       .  A
C2701      C2703   1.399       .  A
C2701      C2702   1.403       .  A
C2702      H2709   1.084       .  S
C2703      C2704   1.394       .  A
C2703      H2710   1.084       .  S
C2704      C2705   1.405       .  A
C2704      H2711   1.083       .  S
C2705      C2706   1.416       .  A
C2706      H2712   1.083       .  S
C2713      C2714   1.407       .  A
C2713      C2718   1.411       .  A
C2714      C2715   1.397       .  A
C2714      H2723   1.083       .  S
C2715      C2716   1.401       .  A
C2715      H2724   1.083       .  S
C2716      C2722   1.408       .  A
C2716      C2717   1.414       .  A
C2717      C2719   1.405       .  A
C2717      C2718   1.414       .  A
C2718      H2725   1.083       .  S
C2719      C2720   1.404       .  A
C2719      H2726   1.083       .  S
C2720      C2721   1.407       .  A
C2720      H2727   1.083       .  S
C2721      C2722   1.408       .  A
C2722      H2728   1.084       .  S
C2729      C2730   1.405       .  A
C2729      C2734   1.404       .  A
C2730      C2731   1.397       .  A
C2730      H2739   1.084       .  S
C2731      C2732   1.402       .  A
C2731      H2740   1.083       .  S
C2732      C2738   1.404       .  A
C2732      C2733   1.414       .  A
C2733      C2735   1.401       .  A
C2733      C2734   1.402       .  A
C2734      H2741   1.083       .  S
C2735      C2736   1.396       .  A
C2735      H2742   1.083       .  S
C2736      C2737   1.405       .  A
C2736      H2743   1.084       .  S
C2737      C2738   1.406       .  A
C2738      H2744   1.083       .  S
C2745      C2746   1.404       .  A
C2745      C2750   1.405       .  A
C2746      C2747   1.397       .  A
C2746      H2755   1.084       .  S
C2747      C2748   1.402       .  A
C2747      H2756   1.082       .  S
C2748      C2754   1.402       .  A
C2748      C2749   1.414       .  A
C2749      C2751   1.402       .  A
C2749      C2750   1.400       .  A
C2750      H2757   1.083       .  S
C2751      C2752   1.396       .  A
C2751      H2758   1.082       .  S
C2752      C2753   1.405       .  A
C2752      H2759   1.084       .  S
C2753      C2754   1.404       .  A
C2754      H2760   1.083       .  S
C2761      C2762   1.406       .  A
C2761      C2766   1.412       .  A
C2762      C2763   1.402       .  A
C2762      H2771   1.083       .  S
C2763      C2764   1.404       .  A
C2763      H2772   1.083       .  S
C2764      C2770   1.411       .  A
C2764      C2765   1.413       .  A
C2765      C2767   1.405       .  A
C2765      C2766   1.413       .  A
C2766      H2773   1.084       .  S
C2767      C2768   1.403       .  A
C2767      H2774   1.083       .  S
C2768      C2769   1.407       .  A
C2768      H2775   1.083       .  S
C2769      C2770   1.410       .  A
C2770      H2776   1.084       .  S
C2777      C2778   1.405       .  A
C2777      C2782   1.408       .  A
C2778      C2779   1.394       .  A
C2778      H2787   1.084       .  S
C2779      C2780   1.400       .  A
C2779      H2788   1.082       .  S
C2780      C2786   1.401       .  A
C2780      C2781   1.414       .  A
C2781      C2783   1.405       .  A
C2781      C2782   1.408       .  A
C2782      H2789   1.082       .  S
C2783      C2784   1.402       .  A
C2783      H2790   1.082       .  S
C2784      C2785   1.405       .  A
C2784      H2791   1.084       .  S
C2785      C2786   1.405       .  A
C2786      H2792   1.082       .  S
C2793      C2794   1.406       .  A
C2793      C2798   1.411       .  A
C2794      C2795   1.404       .  A
C2794      H2803   1.083       .  S
C2795      C2796   1.405       .  A
C2795      H2804   1.083       .  S
C2796      C2802   1.416       .  A
C2796      C2797   1.414       .  A
C2797      C2799   1.403       .  A
C2797      C2798   1.412       .  A
C2798      H2805   1.084       .  S
C2799      C2800   1.401       .  A
C2799      H2806   1.083       .  S
C2800      C2801   1.408       .  A
C2800      H2807   1.083       .  S
C2801      C2802   1.411       .  A
C2802      H2808   1.084       .  S
C2809      C2810   1.408       .  A
C2809      C2814   1.410       .  A
C2810      C2811   1.403       .  A
C2810      H2819   1.083       .  S
C2811      C2812   1.405       .  A
C2811      H2820   1.083       .  S
C2812      C2818   1.413       .  A
C2812      C2813   1.413       .  A
C2813      C2815   1.404       .  A
C2813      C2814   1.412       .  A
C2814      H2821   1.084       .  S
C2815      C2816   1.401       .  A
C2815      H2822   1.083       .  S
C2816      C2817   1.405       .  A
C2816      H2823   1.083       .  S
C2817      C2818   1.413       .  A
C2818      H2824   1.083       .  S
C2825      C2826   1.408       .  A
C2825      C2830   1.411       .  A
C2826      C2827   1.400       .  A
C2826      H2835   1.083       .  S
C2827      C2828   1.402       .  A
C2827      H2836   1.083       .  S
C2828      C2834   1.413       .  A
C2828      C2829   1.414       .  A
C2829      C2831   1.404       .  A
C2829      C2830   1.415       .  A
C2830      H2837   1.084       .  S
C2831      C2832   1.403       .  A
C2831      H2838   1.083       .  S
C2832      C2833   1.407       .  A
C2832      H2839   1.083       .  S
C2833      C2834   1.410       .  A
C2834      H2840   1.084       .  S
C2841      C2842   1.406       .  A
C2841      C2846   1.410       .  A
C2842      C2843   1.403       .  A
C2842      H2851   1.083       .  S
C2843      C2844   1.405       .  A
C2843      H2852   1.083       .  S
C2844      C2850   1.414       .  A
C2844      C2845   1.414       .  A
C2845      C2847   1.403       .  A
C2845      C2846   1.411       .  A
C2846      H2853   1.084       .  S
C2847      C2848   1.401       .  A
C2847      H2854   1.083       .  S
C2848      C2849   1.407       .  A
C2848      H2855   1.083       .  S
C2849      C2850   1.411       .  A
C2850      H2856   1.083       .  S
C2857      C2858   1.405       .  A
C2857      C2862   1.411       .  A
C2858      C2859   1.395       .  A
C2858      H2867   1.083       .  S
C2859      C2860   1.401       .  A
C2859      H2868   1.083       .  S
C2860      C2866   1.404       .  A
C2860      C2861   1.413       .  A
C2861      C2863   1.407       .  A
C2861      C2862   1.412       .  A
C2862      H2869   1.083       .  S
C2863      C2864   1.405       .  A
C2863      H2870   1.083       .  S
C2864      C2865   1.405       .  A
C2864      H2871   1.083       .  S
C2865      C2866   1.408       .  A
C2866      H2872   1.084       .  S
C2873      C2874   1.406       .  A
C2873      C2878   1.411       .  A
C2874      C2875   1.401       .  A
C2874      H2883   1.084       .  S
C2875      C2876   1.403       .  A
C2875      H2884   1.083       .  S
C2876      C2882   1.412       .  A
C2876      C2877   1.414       .  A
C2877      C2879   1.403       .  A
C2877      C2878   1.412       .  A
C2878      H2885   1.083       .  S
C2879      C2880   1.401       .  A
C2879      H2886   1.083       .  S
C2880      C2881   1.408       .  A
C2880      H2887   1.083       .  S
C2881      C2882   1.409       .  A
C2882      H2888   1.084       .  S
C2889      C2890   1.407       .  A
C2889      C2894   1.411       .  A
C2890      C2891   1.402       .  A
C2890      H2899   1.083       .  S
C2891      C2892   1.404       .  A
C2891      H2900   1.083       .  S
C2892      C2898   1.412       .  A
C2892      C2893   1.414       .  A
C2893      C2895   1.404       .  A
C2893      C2894   1.414       .  A
C2894      H2901   1.083       .  S
C2895      C2896   1.402       .  A
C2895      H2902   1.083       .  S
C2896      C2897   1.406       .  A
C2896      H2903   1.083       .  S
C2897      C2898   1.411       .  A
C2898      H2904   1.083       .  S
C2905      C2906   1.405       .  A
C2905      C2910   1.403       .  A
C2906      C2907   1.398       .  A
C2906      H2915   1.083       .  S
C2907      C2908   1.403       .  A
C2907      H2916   1.083       .  S
C2908      C2914   1.402       .  A
C2908      C2909   1.414       .  A
C2909      C2911   1.401       .  A
C2909      C2910   1.399       .  A
C2910      H2917   1.084       .  S
C2911      C2912   1.394       .  A
C2911      H2918   1.083       .  S
C2912      C2913   1.404       .  A
C2912      H2919   1.084       .  S
C2913      C2914   1.405       .  A
C2914      H2920   1.083       .  S
C2921      C2922   1.405       .  A
C2921      C2926   1.407       .  A
C2922      C2923   1.408       .  A
C2922      H2931   1.083       .  S
C2923      C2924   1.409       .  A
C2923      H2932   1.083       .  S
C2924      C2930   1.418       .  A
C2924      C2925   1.414       .  A
C2925      C2927   1.400       .  A
C2925      C2926   1.405       .  A
C2926      H2933   1.084       .  S
C2927      C2928   1.395       .  A
C2927      H2934   1.083       .  S
C2928      C2929   1.406       .  A
C2928      H2935   1.084       .  S
C2929      C2930   1.414       .  A
C2930      H2936   1.083       .  S
C2937      C2938   1.405       .  A
C2937      C2942   1.408       .  A
C2938      C2939   1.394       .  A
C2938      H2947   1.084       .  S
C2939      C2940   1.400       .  A
C2939      H2948   1.082       .  S
C2940      C2946   1.401       .  A
C2940      C2941   1.414       .  A
C2941      C2943   1.405       .  A
C2941      C2942   1.408       .  A
C2942      H2949   1.082       .  S
C2943      C2944   1.402       .  A
C2943      H2950   1.082       .  S
C2944      C2945   1.405       .  A
C2944      H2951   1.084       .  S
C2945      C2946   1.405       .  A
C2946      H2952   1.083       .  S
C2953      C2954   1.405       .  A
C2953      C2958   1.403       .  A
C2954      C2955   1.399       .  A
C2954      H2963   1.084       .  S
C2955      C2956   1.403       .  A
C2955      H2964   1.082       .  S
C2956      C2962   1.404       .  A
C2956      C2957   1.414       .  A
C2957      C2959   1.401       .  A
C2957      C2958   1.400       .  A
C2958      H2965   1.083       .  S
C2959      C2960   1.395       .  A
C2959      H2966   1.083       .  S
C2960      C2961   1.404       .  A
C2960      H2967   1.084       .  S
C2961      C2962   1.406       .  A
C2962      H2968   1.083       .  S
C2969      C2970   1.408       .  A
C2969      C2974   1.410       .  A
C2970      C2971   1.402       .  A
C2970      H2979   1.083       .  S
C2971      C2972   1.404       .  A
C2971      H2980   1.083       .  S
C2972      C2978   1.412       .  A
C2972      C2973   1.414       .  A
C2973      C2975   1.404       .  A
C2973      C2974   1.412       .  A
C2974      H2981   1.084       .  S
C2975      C2976   1.402       .  A
C2975      H2982   1.083       .  S
C2976      C2977   1.407       .  A
C2976      H2983   1.083       .  S
C2977      C2978   1.411       .  A
C2978      H2984   1.084       .  S
C2985      C2986   1.406       .  A
C2985      C2990   1.409       .  A
C2986      C2987   1.400       .  A
C2986      H2995   1.083       .  S
C2987      C2988   1.403       .  A
C2987      H2996   1.084       .  S
C2988      C2994   1.410       .  A
C2988      C2989   1.414       .  A
C2989      C2991   1.403       .  A
C2989      C2990   1.409       .  A
C2990      H2997   1.084       .  S
C2991      C2992   1.400       .  A
C2991      H2998   1.083       .  S
C2992      C2993   1.407       .  A
C2992      H2999   1.083       .  S
C2993      C2994   1.408       .  A
C2994      H3000   1.084       .  S
C3001      C3002   1.405       .  A
C3001      C3006   1.405       .  A
C3002      C3003   1.396       .  A
C3002      H3011   1.084       .  S
C3003      C3004   1.401       .  A
C3003      H3012   1.082       .  S
C3004      C3010   1.401       .  A
C3004      C3005   1.414       .  A
C3005      C3007   1.402       .  A
C3005      C3006   1.402       .  A
C3006      H3013   1.083       .  S
C3007      C3008   1.397       .  A
C3007      H3014   1.082       .  S
C3008      C3009   1.404       .  A
C3008      H3015   1.084       .  S
C3009      C3010   1.404       .  A
C3010      H3016   1.083       .  S
C3017      C3018   1.403       .  A
C3017      C3022   1.405       .  A
C3018      C3019   1.400       .  A
C3018      H3027   1.084       .  S
C3019      C3020   1.404       .  A
C3019      H3028   1.082       .  S
C3020      C3026   1.406       .  A
C3020      C3021   1.414       .  A
C3021      C3023   1.403       .  A
C3021      C3022   1.405       .  A
C3022      H3029   1.083       .  S
C3023      C3024   1.398       .  A
C3023      H3030   1.083       .  S
C3024      C3025   1.404       .  A
C3024      H3031   1.084       .  S
C3025      C3026   1.407       .  A
C3026      H3032   1.083       .  S
C3033      C3034   1.408       .  A
C3033      C3038   1.409       .  A
C3034      C3035   1.404       .  A
C3034      H3043   1.083       .  S
C3035      C3036   1.404       .  A
C3035      H3044   1.084       .  S
C3036      C3042   1.415       .  A
C3036      C3037   1.414       .  A
C3037      C3039   1.403       .  A
C3037      C3038   1.412       .  A
C3038      H3045   1.084       .  S
C3039      C3040   1.400       .  A
C3039      H3046   1.084       .  S
C3040      C3041   1.407       .  A
C3040      H3047   1.083       .  S
C3041      C3042   1.411       .  A
C3042      H3048   1.084       .  S
C3049      C3050   1.408       .  A
C3049      C3054   1.411       .  A
C3050      C3051   1.402       .  A
C3050      H3059   1.083       .  S
C3051      C3052   1.403       .  A
C3051      H3060   1.083       .  S
C3052      C3058   1.414       .  A
C3052      C3053   1.415       .  A
C3053      C3055   1.404       .  A
C3053      C3054   1.416       .  A
C3054      H3061   1.084       .  S
C3055      C3056   1.404       .  A
C3055      H3062   1.084       .  S
C3056      C3057   1.408       .  A
C3056      H3063   1.083       .  S
C3057      C3058   1.410       .  A
C3058      H3064   1.084       .  S
C3065      C3066   1.407       .  A
C3065      C3070   1.412       .  A
C3066      C3067   1.398       .  A
C3066      H3075   1.083       .  S
C3067      C3068   1.401       .  A
C3067      H3076   1.083       .  S
C3068      C3074   1.409       .  A
C3068      C3069   1.414       .  A
C3069      C3071   1.406       .  A
C3069      C3070   1.416       .  A
C3070      H3077   1.083       .  S
C3071      C3072   1.405       .  A
C3071      H3078   1.083       .  S
C3072      C3073   1.407       .  A
C3072      H3079   1.083       .  S
C3073      C3074   1.408       .  A
C3074      H3080   1.084       .  S
C3081      C3082   1.408       .  A
C3081      C3086   1.411       .  A
C3082      C3083   1.400       .  A
C3082      H3091   1.083       .  S
C3083      C3084   1.402       .  A
C3083      H3092   1.083       .  S
C3084      C3090   1.412       .  A
C3084      C3085   1.415       .  A
C3085      C3087   1.404       .  A
C3085      C3086   1.415       .  A
C3086      H3093   1.084       .  S
C3087      C3088   1.403       .  A
C3087      H3094   1.083       .  S
C3088      C3089   1.408       .  A
C3088      H3095   1.083       .  S
C3089      C3090   1.408       .  A
C3090      H3096   1.084       .  S
C3097      C3098   1.408       .  A
C3097      C3102   1.411       .  A
C3098      C3099   1.403       .  A
C3098      H3107   1.083       .  S
C3099      C3100   1.404       .  A
C3099      H3108   1.083       .  S
C3100      C3106   1.414       .  A
C3100      C3101   1.414       .  A
C3101      C3103   1.404       .  A
C3101      C3102   1.414       .  A
C3102      H3109   1.084       .  S
C3103      C3104   1.402       .  A
C3103      H3110   1.083       .  S
C3104      C3105   1.407       .  A
C3104      H3111   1.083       .  S
C3105      C3106   1.410       .  A
C3106      H3112   1.084       .  S
C3113      C3114   1.407       .  A
C3113      C3118   1.406       .  A
C3114      C3115   1.411       .  A
C3114      H3123   1.082       .  S
C3115      C3116   1.410       .  A
C3115      H3124   1.083       .  S
C3116      C3122   1.419       .  A
C3116      C3117   1.413       .  A
C3117      C3119   1.398       .  A
C3117      C3118   1.402       .  A
C3118      H3125   1.085       .  S
C3119      C3120   1.392       .  A
C3119      H3126   1.084       .  S
C3120      C3121   1.406       .  A
C3120      H3127   1.083       .  S
C3121      C3122   1.416       .  A
C3122      H3128   1.083       .  S
C3129      C3130   1.405       .  A
C3129      C3134   1.404       .  A
C3130      C3131   1.397       .  A
C3130      H3139   1.084       .  S
C3131      C3132   1.402       .  A
C3131      H3140   1.082       .  S
C3132      C3138   1.402       .  A
C3132      C3133   1.414       .  A
C3133      C3135   1.401       .  A
C3133      C3134   1.401       .  A
C3134      H3141   1.083       .  S
C3135      C3136   1.396       .  A
C3135      H3142   1.082       .  S
C3136      C3137   1.404       .  A
C3136      H3143   1.084       .  S
C3137      C3138   1.405       .  A
C3138      H3144   1.083       .  S
C3145      C3146   1.407       .  A
C3145      C3150   1.410       .  A
C3146      C3147   1.402       .  A
C3146      H3155   1.083       .  S
C3147      C3148   1.404       .  A
C3147      H3156   1.083       .  S
C3148      C3154   1.414       .  A
C3148      C3149   1.414       .  A
C3149      C3151   1.403       .  A
C3149      C3150   1.412       .  A
C3150      H3157   1.084       .  S
C3151      C3152   1.401       .  A
C3151      H3158   1.083       .  S
C3152      C3153   1.407       .  A
C3152      H3159   1.083       .  S
C3153      C3154   1.411       .  A
C3154      H3160   1.084       .  S
C3161      C3162   1.407       .  A
C3161      C3166   1.407       .  A
C3162      C3163   1.408       .  A
C3162      H3171   1.083       .  S
C3163      C3164   1.408       .  A
C3163      H3172   1.083       .  S
C3164      C3170   1.415       .  A
C3164      C3165   1.413       .  A
C3165      C3167   1.400       .  A
C3165      C3166   1.403       .  A
C3166      H3173   1.084       .  S
C3167      C3168   1.394       .  A
C3167      H3174   1.083       .  S
C3168      C3169   1.405       .  A
C3168      H3175   1.083       .  S
C3169      C3170   1.413       .  A
C3170      H3176   1.083       .  S
C3177      C3178   1.406       .  A
C3177      C3182   1.408       .  A
C3178      C3179   1.402       .  A
C3178      H3187   1.084       .  S
C3179      C3180   1.405       .  A
C3179      H3188   1.083       .  S
C3180      C3186   1.412       .  A
C3180      C3181   1.414       .  A
C3181      C3183   1.402       .  A
C3181      C3182   1.409       .  A
C3182      H3189   1.084       .  S
C3183      C3184   1.399       .  A
C3183      H3190   1.083       .  S
C3184      C3185   1.406       .  A
C3184      H3191   1.083       .  S
C3185      C3186   1.410       .  A
C3186      H3192   1.083       .  S
C3193      C3194   1.403       .  A
C3193      C3198   1.404       .  A
C3194      C3195   1.390       .  A
C3194      H3203   1.083       .  S
C3195      C3196   1.399       .  A
C3195      H3204   1.083       .  S
C3196      C3202   1.392       .  A
C3196      C3197   1.413       .  A
C3197      C3199   1.403       .  A
C3197      C3198   1.398       .  A
C3198      H3205   1.084       .  S
C3199      C3200   1.397       .  A
C3199      H3206   1.083       .  S
C3200      C3201   1.403       .  A
C3200      H3207   1.083       .  S
C3201      C3202   1.401       .  A
C3202      H3208   1.084       .  S
C3209      C3210   1.406       .  A
C3209      C3214   1.412       .  A
C3210      C3211   1.400       .  A
C3210      H3219   1.083       .  S
C3211      C3212   1.403       .  A
C3211      H3220   1.083       .  S
C3212      C3218   1.411       .  A
C3212      C3213   1.414       .  A
C3213      C3215   1.405       .  A
C3213      C3214   1.413       .  A
C3214      H3221   1.083       .  S
C3215      C3216   1.403       .  A
C3215      H3222   1.083       .  S
C3216      C3217   1.407       .  A
C3216      H3223   1.083       .  S
C3217      C3218   1.410       .  A
C3218      H3224   1.083       .  S
C3225      C3226   1.402       .  A
C3225      C3230   1.408       .  A
C3226      C3227   1.397       .  A
C3226      H3235   1.084       .  S
C3227      C3228   1.402       .  A
C3227      H3236   1.083       .  S
C3228      C3234   1.404       .  A
C3228      C3229   1.414       .  A
C3229      C3231   1.405       .  A
C3229      C3230   1.408       .  A
C3230      H3237   1.084       .  S
C3231      C3232   1.401       .  A
C3231      H3238   1.083       .  S
C3232      C3233   1.405       .  A
C3232      H3239   1.083       .  S
C3233      C3234   1.406       .  A
C3234      H3240   1.084       .  S
