geometry optimzed in LAMMPS
_audit_creation_date              2020-11-30 
_audit_creation_method            'lammps2cif' 
_symmetry_space_group_name_H-M    'P1' 
_symmetry_Int_Tables_number       1 
_symmetry_cell_setting            triclinic 
loop_ 
_symmetry_equiv_pos_as_xyz 
  x,y,z 
_cell_length_a                    27.83943819 
_cell_length_b                    27.7245775254641 
_cell_length_c                    27.747129201770658 
_cell_angle_alpha                 90.04451086590228 
_cell_angle_beta                  89.99037298270646 
_cell_angle_gamma                 90.04413522837507 
loop_ 
_atom_site_label 
_atom_site_type_symbol 
_atom_site_fract_x 
_atom_site_fract_y 
_atom_site_fract_z 
_atom_site_charge 
O1          O  0.00105872  0.07807055  0.13896007    -0.86900
O2          O  0.99580959  0.08204210  0.86603290    -0.87100
O3          O  0.07517147  0.14067080  0.00647969    -0.88800
O4          O  0.92040789  0.13806776  0.00139188    -0.87500
O5          O  0.86272732  0.07911552  0.00425069    -0.87100
O6          O  0.13371500  0.08278902  0.00161385    -0.88500
O7          O  0.99933567  0.13999722  0.92510520    -0.86900
O8          O  0.99455888  0.13746103  0.08153829    -0.86500
Zr9        Zr  0.99842873  0.09891820  0.00258294     2.84300
O10         O  0.94945827  0.05057487  0.95388644    -1.08500
O11         O  0.04887701  0.05042071  0.04922017    -1.09200
C12         C  0.99697138  0.12245706  0.12552505     1.06200
C13         C  0.99749222  0.12631393  0.88063854     1.06100
C14         C  0.11949938  0.12707001  0.00518239     1.09100
C15         C  0.87629545  0.12376940  0.00282948     1.06900
H16         H  0.06659029  0.07264695  0.93150984     0.32500
O17         O  0.04700793  0.05214177  0.95160591    -1.29500
H18         H  0.93134781  0.06839202  0.07265414     0.32100
O19         O  0.95152170  0.04915699  0.05191146    -1.31100
O20         O  0.99934646  0.92445899  0.86355151    -0.86900
O21         O  0.00437336  0.92139545  0.13699652    -0.88400
O22         O  0.13374601  0.00208383  0.91876863    -0.87000
O23         O  0.86192290  0.00003476  0.92545666    -0.87000
O24         O  0.86622247  0.99602389  0.08278225    -0.86700
O25         O  0.13929906  0.00508592  0.07476382    -0.86600
O26         O  0.07927153  0.86584143  0.99644419    -0.86900
O27         O  0.92214216  0.86399002  0.00080223    -0.86400
O28         O  0.13693036  0.92496480  0.99731793    -0.87500
O29         O  0.86349885  0.92215590  0.00450408    -0.86600
O30         O  0.07442496  0.00159073  0.86151163    -0.87000
O31         O  0.08236650  0.00398321  0.13445411    -0.86700
O32         O  0.92560281  0.99563050  0.14003713    -0.86400
O33         O  0.91911058  0.00083081  0.86598309    -0.86800
O34         O  0.99885147  0.86526205  0.92136073    -0.87100
O35         O  0.00516452  0.86324003  0.07799633    -0.88400
Zr36       Zr  0.99781918  0.00270903  0.90402616     2.83100
Zr37       Zr  0.00238483  0.00028253  0.09820254     2.83500
Zr38       Zr  0.09655998  0.00302585  0.99850802     2.84100
Zr39       Zr  0.90291274  0.00061815  0.00324253     2.83400
Zr40       Zr  0.00061294  0.90409448  0.00013797     2.84200
O41         O  0.95283114  0.95171847  0.05037195    -1.09000
O42         O  0.04763260  0.95382431  0.95087804    -1.08500
C43         C  0.99911028  0.87984168  0.87713429     1.06200
C44         C  0.00554424  0.87707986  0.12250329     1.08800
C45         C  0.11897547  0.00108781  0.87456562     1.06300
C46         C  0.87509660  0.99992894  0.88074854     1.06700
C47         C  0.88109997  0.99422609  0.12687752     1.06300
C48         C  0.12636662  0.00564400  0.11943374     1.05800
C49         C  0.12341677  0.88033692  0.99628306     1.06300
C50         C  0.87778814  0.87787443  0.00259757     1.05800
H51         H  0.07126071  0.93290705  0.06738655     0.32400
O52         O  0.05033766  0.95272613  0.04802450    -1.30100
H53         H  0.93048164  0.93266439  0.93310916     0.32500
O54         O  0.95068624  0.95280499  0.95296459    -1.31500
O55         O  0.99342367  0.41850180  0.36487161    -0.86900
O56         O  0.00257067  0.42497434  0.63902105    -0.87100
O57         O  0.07646686  0.36137218  0.49849076    -0.88800
O58         O  0.92062283  0.36422052  0.50489996    -0.87500
O59         O  0.86301481  0.42323776  0.50556541    -0.87100
O60         O  0.13505663  0.41933810  0.49411378    -0.88500
O61         O  0.99737664  0.36538156  0.58178990    -0.86900
O62         O  0.99650966  0.36125977  0.42474844    -0.86500
Zr63       Zr  0.99934536  0.40253288  0.50200353     2.84300
O64         O  0.95290985  0.45268552  0.55080690    -1.08500
O65         O  0.04700292  0.44923203  0.45039189    -1.09200
C66         C  0.99399934  0.37458086  0.38026680     1.06200
C67         C  0.99915264  0.38046422  0.62588078     1.06100
C68         C  0.12074886  0.37498783  0.49533879     1.09100
C69         C  0.87650886  0.37868681  0.50601461     1.06900
H70         H  0.07067193  0.43079790  0.56796479     0.32500
O71         O  0.05037503  0.45096441  0.54828081    -1.29500
H72         H  0.92938637  0.42998237  0.43457895     0.32100
O73         O  0.95022128  0.45042766  0.45342573    -1.31100
O74         O  0.00443129  0.58016002  0.63601343    -0.86900
O75         O  0.99908691  0.57512363  0.36070350    -0.88400
O76         O  0.14078932  0.49768023  0.57252459    -0.87000
O77         O  0.86745422  0.50061683  0.58213744    -0.87000
O78         O  0.86137302  0.49669644  0.42501131    -0.86700
O79         O  0.13325323  0.49738209  0.41655890    -0.86600
O80         O  0.08015012  0.63548147  0.49876478    -0.86900
O81         O  0.92332069  0.63732240  0.50001056    -0.86400
O82         O  0.13787580  0.57643863  0.49823642    -0.87500
O83         O  0.86483247  0.57907000  0.50168637    -0.86600
O84         O  0.08389632  0.50115823  0.63218398    -0.87000
O85         O  0.07396178  0.49404647  0.35935259    -0.86700
O86         O  0.91828182  0.49546673  0.36533801    -0.86400
O87         O  0.92669906  0.50020051  0.63958530    -0.86800
O88         O  0.00441737  0.63808172  0.57693520    -0.87100
O89         O  0.00016753  0.63442870  0.41864837    -0.88400
Zr90       Zr  0.00355856  0.50158679  0.59692905     2.83100
Zr91       Zr  0.99764114  0.49779080  0.40244914     2.83500
Zr92       Zr  0.09720077  0.49849269  0.49661023     2.84100
Zr93       Zr  0.90382585  0.50070522  0.50221264     2.83400
Zr94       Zr  0.00136208  0.59714246  0.49843663     2.84200
O95         O  0.95091489  0.54850236  0.45116618    -1.09000
O96         O  0.05108753  0.54880732  0.54608797    -1.08500
C97         C  0.00470504  0.62444436  0.62159927     1.06200
C98         C  0.99995937  0.61967967  0.37438636     1.08800
C99         C  0.12785837  0.49919856  0.61718430     1.06300
C100        C  0.88214151  0.50010142  0.62633923     1.06700
C101        C  0.87427558  0.49480687  0.38022686     1.06300
C102        C  0.11850111  0.49531522  0.37242202     1.05800
C103        C  0.12428752  0.62101029  0.49904898     1.06300
C104        C  0.87894803  0.62345065  0.50112630     1.05800
H105        H  0.06795484  0.56682737  0.42796594     0.32400
O106        O  0.04810857  0.54728868  0.44874550    -1.30100
H107        H  0.93435657  0.57033024  0.56964105     0.32500
O108        O  0.95369169  0.54989282  0.54924249    -1.31500
O109        O  0.64010143  0.00167717  0.42668741    -0.86900
O110        O  0.36771381  0.99969983  0.41670912    -0.87100
O111        O  0.50757631  0.92574215  0.36057350    -0.88800
O112        O  0.50445061  0.08280399  0.36635077    -0.87500
O113        O  0.50121583  0.13996219  0.42602208    -0.87100
O114        O  0.50159815  0.86581789  0.41743559    -0.88500
O115        O  0.42720939  0.00310357  0.35964509    -0.86900
O116        O  0.58339295  0.00342389  0.36684912    -0.86500
Zr117      Zr  0.50355730  0.00275317  0.40275968     2.84300
O118        O  0.45273952  0.04939323  0.45107221    -1.08500
O119        O  0.55103381  0.95285837  0.45112147    -1.09200
C120        C  0.62730701  0.00232188  0.38194093     1.06200
C121        C  0.38262544  0.00166811  0.37260878     1.06100
C122        C  0.50487433  0.88111177  0.37362414     1.09100
C123        C  0.50331265  0.12698338  0.38131300     1.06900
H124        H  0.43429858  0.93215548  0.42667255     0.32500
O125        O  0.45350584  0.95194248  0.44784506    -1.29500
H126        H  0.57050688  0.07129108  0.43527372     0.32100
O127        O  0.54999847  0.05054564  0.45414019    -1.31100
O128        O  0.36083259  0.99493293  0.57384048    -0.86900
O129        O  0.63371807  0.00001431  0.58261163    -0.88400
O130        O  0.42390525  0.86169106  0.49610181    -0.87000
O131        O  0.42013771  0.13519042  0.50012317    -0.87000
O132        O  0.57724007  0.13732871  0.50559909    -0.86700
O133        O  0.57957108  0.86393425  0.49819641    -0.86600
O134        O  0.49423251  0.91766988  0.63293485    -0.86900
O135        O  0.49618892  0.07405589  0.63975328    -0.86400
O136        O  0.49654060  0.86057290  0.57320577    -0.87500
O137        O  0.49747870  0.13357809  0.58246459    -0.86600
O138        O  0.36515575  0.91959443  0.49543604    -0.87000
O139        O  0.63735919  0.92269915  0.50258702    -0.86700
O140        O  0.63588008  0.07928669  0.50551071    -0.86400
O141        O  0.36257831  0.07612182  0.49602053    -0.86800
O142        O  0.41758242  0.99380186  0.63371009    -0.87100
O143        O  0.57430392  0.99708582  0.63974365    -0.88400
Zr144      Zr  0.40345472  0.99865542  0.49688329     2.83100
Zr145      Zr  0.59700357  0.00068962  0.50306605     2.83500
Zr146      Zr  0.50111971  0.90291635  0.49688700     2.84100
Zr147      Zr  0.49920532  0.09706965  0.50267035     2.83400
Zr148      Zr  0.49729012  0.99738449  0.59707162     2.84200
O149        O  0.54697121  0.04796406  0.55163046    -1.09000
O150        O  0.45092309  0.94953206  0.54563277    -1.08500
C151        C  0.37360219  0.99326115  0.61864009     1.06200
C152        C  0.61894106  0.99847185  0.62672300     1.08800
C153        C  0.37954602  0.87527951  0.49576137     1.06300
C154        C  0.37601218  0.12069917  0.49747735     1.06700
C155        C  0.62165558  0.12363043  0.50603625     1.06300
C156        C  0.62374374  0.87815887  0.50064429     1.05800
C157        C  0.49427414  0.87362111  0.61778804     1.06300
C158        C  0.49666840  0.11873136  0.62660433     1.05800
H159        H  0.56722841  0.92948265  0.56921575     0.32400
O160        O  0.54782175  0.95002756  0.54902666    -1.30100
H161        H  0.42845948  0.06623878  0.56864109     0.32500
O162        O  0.44937094  0.04697591  0.54867052    -1.31500
O163        O  0.42015190  0.36607095  0.00455577    -0.86900
O164        O  0.42308768  0.63957024  0.99201521    -0.87100
O165        O  0.36144793  0.50634349  0.07441971    -0.88800
O166        O  0.36539464  0.49961254  0.91793761    -0.87500
O167        O  0.42452110  0.49649932  0.86051533    -0.87100
O168        O  0.41850770  0.50711040  0.13403497    -0.88500
O169        O  0.36441548  0.58149627  0.99149545    -0.86900
O170        O  0.36244559  0.42500032  0.00211850    -0.86500
Zr171      Zr  0.40289696  0.50274646  0.99732720     2.84300
O172        O  0.45245641  0.54942683  0.94808394    -1.08500
O173        O  0.44974433  0.45503173  0.04859551    -1.09200
C174        C  0.37597605  0.38049182  0.00444994     1.06200
C175        C  0.37870098  0.62586956  0.99043639     1.06100
C176        C  0.37448106  0.50720568  0.11908395     1.09100
C177        C  0.38010283  0.49746075  0.87376881     1.06900
H178        H  0.43038295  0.57400264  0.06458191     0.32500
O179        O  0.45050932  0.55289031  0.04568765    -1.29500
H180        H  0.43128876  0.43060945  0.93145466     0.32100
O181        O  0.45111880  0.45140138  0.95102878    -1.31100
O182        O  0.57919004  0.63791846  0.99647156    -0.86900
O183        O  0.57697863  0.36475595  0.00576633    -0.88400
O184        O  0.49875810  0.58491927  0.13310723    -0.87000
O185        O  0.50008879  0.57486259  0.85944844    -0.87000
O186        O  0.50197985  0.41925203  0.86517080    -0.86700
O187        O  0.49791746  0.42711921  0.13832436    -0.86600
O188        O  0.63417109  0.50355330  0.07993098    -0.86900
O189        O  0.63705100  0.49359695  0.92255236    -0.86400
O190        O  0.57526100  0.50528935  0.13771222    -0.87500
O191        O  0.57957057  0.49505338  0.86340136    -0.86600
O192        O  0.50267230  0.64176619  0.07296642    -0.87000
O193        O  0.49915886  0.36715938  0.08136143    -0.86700
O194        O  0.50193233  0.36236286  0.92503576    -0.86400
O195        O  0.50061519  0.63484333  0.91633453    -0.86800
O196        O  0.63726146  0.57908583  0.99615313    -0.87100
O197        O  0.63550310  0.42296476  0.00525077    -0.88400
Zr198      Zr  0.50073308  0.59895831  0.99615669     2.83100
Zr199      Zr  0.49892150  0.40463886  0.00220028     2.83500
Zr200      Zr  0.49783600  0.50497736  0.09646600     2.84100
Zr201      Zr  0.50120084  0.49843290  0.90221862     2.83400
Zr202      Zr  0.59656798  0.50124070  0.00039961     2.84200
O203        O  0.54872707  0.45095966  0.95267732    -1.09000
O204        O  0.54795304  0.55168693  0.04724685    -1.08500
C205        C  0.62332232  0.62353855  0.99604311     1.06200
C206        C  0.62134811  0.37861752  0.00664070     1.08800
C207        C  0.50104658  0.62881700  0.11765643     1.06300
C208        C  0.49992913  0.61960806  0.87233875     1.06700
C209        C  0.50248350  0.37524556  0.88025894     1.06300
C210        C  0.49902590  0.38222102  0.12542679     1.05800
C211        C  0.61973710  0.50417388  0.12427029     1.06300
C212        C  0.62362263  0.49297924  0.87792427     1.05800
H213        H  0.56640982  0.43524683  0.07100837     0.32400
O214        O  0.54683832  0.45471981  0.04997005    -1.30100
H215        H  0.57009109  0.56798948  0.92849346     0.32500
O216        O  0.54970738  0.54889722  0.94917218    -1.31500
C217        C  0.51721455  0.17620746  0.21080594    -0.18300
C218        C  0.51647304  0.21171478  0.17508279    -0.20400
C219        C  0.50959685  0.26033645  0.18738725     0.20200
C220        C  0.50385400  0.27338531  0.23619418    -0.03300
C221        C  0.50467000  0.23751046  0.27229831    -0.06400
C222        C  0.51114738  0.18872642  0.25942537     0.20500
C223        C  0.49862695  0.25041054  0.32113718     0.19100
C224        C  0.49211104  0.29910710  0.33341722    -0.17900
C225        C  0.49126536  0.33466390  0.29762203    -0.20100
C226        C  0.49696243  0.32218187  0.24891107     0.20200
C227        C  0.49559267  0.35757916  0.21273352    -0.33100
C228        C  0.50081174  0.34487305  0.16384410     0.00800
C229        C  0.50808423  0.29602967  0.15166574    -0.24500
C230        C  0.51105906  0.15318118  0.29525401    -0.29000
C231        C  0.50453341  0.16545931  0.34407971     0.06500
C232        C  0.49874724  0.21437473  0.35672376    -0.27700
H233        H  0.52230167  0.13888434  0.20037011     0.11200
H234        H  0.52102822  0.20109800  0.13777017     0.12400
H235        H  0.48741759  0.30969111  0.37071923     0.11400
H236        H  0.48595343  0.37195305  0.30804012     0.10700
H237        H  0.49008869  0.39497168  0.22271194     0.16100
H238        H  0.51258929  0.28558542  0.11428099     0.12000
H239        H  0.51588163  0.11579405  0.28488412     0.14800
H240        H  0.49376310  0.22444806  0.39414649     0.14600
C241        C  0.43508364  0.69894782  0.26643611    -0.18300
C242        C  0.43585286  0.73409191  0.30256261    -0.20400
C243        C  0.46981160  0.77147686  0.30120529     0.20200
C244        C  0.50320887  0.77372665  0.26296353    -0.03300
C245        C  0.50243515  0.73825750  0.22650896    -0.06400
C246        C  0.46828282  0.70063187  0.22842755     0.20500
C247        C  0.53595972  0.74028502  0.18833732     0.18700
C248        C  0.57034964  0.77733580  0.18741428    -0.17900
C249        C  0.57109081  0.81255432  0.22356792    -0.20100
C250        C  0.53746285  0.81129782  0.26123165     0.20200
C251        C  0.53748868  0.84683063  0.29725242    -0.33100
C252        C  0.50453754  0.84440364  0.33547042     0.00800
C253        C  0.47103788  0.80659667  0.33746555    -0.24500
C254        C  0.46819412  0.66510055  0.19253694    -0.29000
C255        C  0.50117985  0.66712959  0.15433692     0.06500
C256        C  0.53467898  0.70498537  0.15204954    -0.27700
H257        H  0.40863137  0.67031456  0.26832272     0.11200
H258        H  0.40995624  0.73196283  0.33164824     0.12400
H259        H  0.59664383  0.77911834  0.15867442     0.11400
H260        H  0.59790786  0.84086233  0.22200819     0.10700
H261        H  0.56356812  0.87589112  0.29609826     0.16100
H262        H  0.44547307  0.80502184  0.36693698     0.12000
H263        H  0.44223576  0.63593893  0.19403658     0.14800
H264        H  0.56038450  0.70620996  0.12270434     0.14600
C265        C  0.49785759  0.66571964  0.69992113    -0.18300
C266        C  0.49656589  0.70130313  0.66422169    -0.20400
C267        C  0.49452431  0.75027287  0.67694140     0.20200
C268        C  0.49353704  0.76350942  0.72604290    -0.03300
C269        C  0.49515218  0.72772533  0.76195665    -0.06400
C270        C  0.49733455  0.67859096  0.74886291     0.20500
C271        C  0.49470496  0.74120699  0.81097373     0.18700
C272        C  0.49224521  0.79006770  0.82376168    -0.17900
C273        C  0.49037686  0.82549988  0.78818874    -0.20100
C274        C  0.49120257  0.81255275  0.73936130     0.20200
C275        C  0.49032560  0.84797852  0.70371714    -0.33100
C276        C  0.49236595  0.83533222  0.65469261     0.00800
C277        C  0.49393962  0.78628222  0.64152704    -0.24500
C278        C  0.49897342  0.64327926  0.78496196    -0.29000
C279        C  0.49867126  0.65656165  0.83397672     0.06500
C280        C  0.49662031  0.70567435  0.84650351    -0.27700
H281        H  0.49945519  0.62814779  0.68925823     0.11200
H282        H  0.49728189  0.69053285  0.62667808     0.12400
H283        H  0.49178210  0.80088206  0.86129655     0.11400
H284        H  0.48857417  0.86306233  0.79886640     0.10700
H285        H  0.48880508  0.88556383  0.71441094     0.16100
H286        H  0.49529086  0.77605843  0.60383344     0.12000
H287        H  0.50051337  0.60554792  0.77481693     0.14800
H288        H  0.49624967  0.71649119  0.88405341     0.14600
C289        C  0.49134286  0.32565642  0.70986355    -0.18300
C290        C  0.48981902  0.28978374  0.67456857    -0.20400
C291        C  0.49383780  0.24105249  0.68743888     0.20200
C292        C  0.49960815  0.22820840  0.73626621    -0.03300
C293        C  0.50136059  0.26444978  0.77189189    -0.06400
C294        C  0.49700942  0.31332848  0.75854704     0.20500
C295        C  0.50726163  0.25178078  0.82077806     0.18700
C296        C  0.51162040  0.20299657  0.83353546    -0.17900
C297        C  0.50969563  0.16700770  0.79819052    -0.20100
C298        C  0.50362466  0.17923623  0.74947895     0.20200
C299        C  0.50187306  0.14345538  0.71371006    -0.33100
C300        C  0.49662987  0.15609167  0.66481018     0.00800
C301        C  0.49240761  0.20504702  0.65218575    -0.24500
C302        C  0.49798941  0.34909602  0.79408533    -0.29000
C303        C  0.50318650  0.33688765  0.84306039     0.06500
C304        C  0.50824536  0.28806488  0.85603955    -0.27700
H305        H  0.48799501  0.36306215  0.69908461     0.11200
H306        H  0.48543377  0.30015647  0.63718102     0.12400
H307        H  0.51628833  0.19265410  0.87089323     0.11400
H308        H  0.51299651  0.12959824  0.80895867     0.10700
H309        H  0.50525194  0.10588849  0.72395508     0.16100
H310        H  0.48814298  0.21536829  0.61475668     0.12000
H311        H  0.49408952  0.38650661  0.78345082     0.14800
H312        H  0.51260419  0.27818688  0.89357398     0.14600
C313        C  0.66996532  0.29515081  0.49543372    -0.18300
C314        C  0.70548578  0.33084605  0.49585506    -0.20400
C315        C  0.75395115  0.31839991  0.50201867     0.20200
C316        C  0.76675085  0.26953548  0.50798733    -0.03300
C317        C  0.73090731  0.23353290  0.50762691    -0.06400
C318        C  0.68230529  0.24643718  0.50128469     0.20500
C319        C  0.74374188  0.18467626  0.51350559     0.18700
C320        C  0.79219174  0.17223979  0.51984436    -0.17900
C321        C  0.82770856  0.20790971  0.52017423    -0.20100
C322        C  0.81535781  0.25658046  0.51413622     0.20200
C323        C  0.85083285  0.29242341  0.51385631    -0.33100
C324        C  0.83851868  0.34124090  0.50750754     0.00800
C325        C  0.78983763  0.35391037  0.50194903    -0.24500
C326        C  0.64687682  0.21046315  0.50090673    -0.29000
C327        C  0.65928018  0.16158838  0.50678373     0.06500
C328        C  0.70794816  0.14909638  0.51297091    -0.27700
H329        H  0.63280771  0.30565518  0.49051204     0.11200
H330        H  0.69505094  0.36819952  0.49121392     0.12400
H331        H  0.80263797  0.13488983  0.52447998     0.11400
H332        H  0.86488084  0.19740756  0.52501908     0.10700
H333        H  0.88810805  0.28214592  0.51849211     0.16100
H334        H  0.77979576  0.39134885  0.49697969     0.12000
H335        H  0.60963442  0.22062752  0.49581356     0.14800
H336        H  0.71811298  0.11164661  0.51757437     0.14600
C337        C  0.79463036  0.83020810  0.51451137    -0.18300
C338        C  0.83023702  0.79463150  0.51464541    -0.20400
C339        C  0.81796946  0.74587470  0.50878355     0.20200
C340        C  0.76929807  0.73277200  0.50321888    -0.03300
C341        C  0.73336797  0.76866968  0.50308833    -0.06400
C342        C  0.74614193  0.81762487  0.50853848     0.20500
C343        C  0.68474104  0.75555679  0.49726719     0.18700
C344        C  0.67240152  0.70675108  0.49200915    -0.17900
C345        C  0.70798782  0.67119329  0.49213253    -0.20100
C346        C  0.75650884  0.68385585  0.49752407     0.20200
C347        C  0.79242833  0.64846341  0.49705974    -0.33100
C348        C  0.84119183  0.66119402  0.50206711     0.00800
C349        C  0.85354230  0.71007901  0.50815125    -0.24500
C350        C  0.71027160  0.85314183  0.50775175    -0.29000
C351        C  0.66161902  0.84045362  0.50159976     0.06500
C352        C  0.64928324  0.79141879  0.49659942    -0.27700
H353        H  0.80505380  0.86761811  0.51888815     0.11200
H354        H  0.86742743  0.80528737  0.51911487     0.12400
H355        H  0.63520613  0.69607968  0.48761622     0.11400
H356        H  0.69756086  0.63377421  0.48782035     0.10700
H357        H  0.78228924  0.61098961  0.49239108     0.16100
H358        H  0.89086218  0.72039668  0.51243534     0.12000
H359        H  0.72037148  0.89067884  0.51193623     0.14800
H360        H  0.61203728  0.78099916  0.49193763     0.14600
C361        C  0.32706384  0.29175556  0.48838424    -0.18300
C362        C  0.29143389  0.32720069  0.48766974    -0.20400
C363        C  0.24276840  0.31428468  0.49006325     0.20200
C364        C  0.22976475  0.26517520  0.49269009    -0.03300
C365        C  0.26575003  0.22937556  0.49338702    -0.06400
C366        C  0.31460263  0.24282308  0.49147006     0.20500
C367        C  0.25286658  0.18024739  0.49630880     0.18700
C368        C  0.20411567  0.16734173  0.49817934    -0.17900
C369        C  0.16842527  0.20285415  0.49752618    -0.20100
C370        C  0.18089291  0.25185715  0.49500557     0.20200
C371        C  0.14541336  0.28776649  0.49524622    -0.33100
C372        C  0.15813179  0.33694180  0.49339573     0.00800
C373        C  0.20698755  0.34972437  0.49035464    -0.24500
C374        C  0.35022609  0.20720686  0.49283920    -0.29000
C375        C  0.33787350  0.15807451  0.49597920     0.06500
C376        C  0.28894396  0.14494533  0.49751152    -0.27700
H377        H  0.36441702  0.30264227  0.48673894     0.11200
H378        H  0.30196658  0.36477227  0.48552917     0.12400
H379        H  0.19358427  0.12977278  0.50035713     0.11400
H380        H  0.13106411  0.19199585  0.49924855     0.10700
H381        H  0.10794384  0.27732160  0.49736064     0.16100
H382        H  0.21739911  0.38736818  0.48867526     0.12000
H383        H  0.38765448  0.21790924  0.49137830     0.14800
H384        H  0.27880620  0.10726734  0.49992060     0.14600
C385        C  0.21161137  0.82433896  0.47001515    -0.18300
C386        C  0.17579665  0.78904570  0.47133593    -0.20400
C387        C  0.18669869  0.74187164  0.48590626     0.20200
C388        C  0.23412498  0.73005946  0.49935055    -0.03300
C389        C  0.27025633  0.76575452  0.49820757    -0.06400
C390        C  0.25885190  0.81307844  0.48346290     0.20500
C391        C  0.31772582  0.75406581  0.51164381     0.18700
C392        C  0.32859424  0.70683334  0.52621480    -0.17900
C393        C  0.29279252  0.67137070  0.52714671    -0.20100
C394        C  0.24550518  0.68257603  0.51362366     0.20200
C395        C  0.20949530  0.64710515  0.51371529    -0.33100
C396        C  0.16214218  0.65858681  0.50002719     0.00800
C397        C  0.15104633  0.70624205  0.48670834    -0.24500
C398        C  0.29479596  0.84840778  0.48248663    -0.29000
C399        C  0.34219203  0.83722292  0.49597682     0.06500
C400        C  0.35341101  0.78982538  0.51033753    -0.27700
H401        H  0.20233940  0.86049389  0.45851172     0.11200
H402        H  0.13956920  0.79861207  0.46076749     0.12400
H403        H  0.36483568  0.69727192  0.53674594     0.11400
H404        H  0.30213047  0.63512270  0.53829766     0.10700
H405        H  0.21834668  0.61060620  0.52451655     0.16100
H406        H  0.11476512  0.71550381  0.47597899     0.12000
H407        H  0.28580909  0.88467153  0.47102247     0.14800
H408        H  0.38976338  0.78086161  0.52108470     0.14600
C409        C  0.79043649  0.49331910  0.17302766    -0.18300
C410        C  0.82578794  0.49041839  0.20870278    -0.20400
C411        C  0.81306210  0.49064003  0.25765263     0.20200
C412        C  0.76418198  0.49282741  0.27080336    -0.03300
C413        C  0.72843060  0.49554921  0.23473163    -0.06400
C414        C  0.74171542  0.49620137  0.18566391     0.20500
C415        C  0.67952011  0.49807210  0.24778334     0.18700
C416        C  0.66678619  0.49728731  0.29675197    -0.17900
C417        C  0.70222211  0.49482123  0.33249530    -0.20100
C418        C  0.75105500  0.49302298  0.31993888     0.20200
C419        C  0.78696780  0.49246998  0.35559116    -0.33100
C420        C  0.83598993  0.49194965  0.34278879     0.00800
C421        C  0.84847852  0.48984663  0.29357800    -0.24500
C422        C  0.70615192  0.49969946  0.15003580    -0.29000
C423        C  0.65716148  0.50229824  0.16254774     0.06500
C424        C  0.64425020  0.50139113  0.21170095    -0.27700
H425        H  0.80124316  0.49355882  0.13550920     0.11200
H426        H  0.86317385  0.48860368  0.19799174     0.12400
H427        H  0.62939034  0.49897125  0.30744588     0.11400
H428        H  0.69142873  0.49480049  0.37001426     0.10700
H429        H  0.77666803  0.49345122  0.39325109     0.16100
H430        H  0.88593385  0.48871488  0.28297483     0.12000
H431        H  0.71679386  0.50008516  0.11245892     0.14800
H432        H  0.60673623  0.50308482  0.22201552     0.14600
C433        C  0.16842128  0.48158845  0.20091756    -0.18300
C434        C  0.20411580  0.48460736  0.16547150    -0.20400
C435        C  0.25182279  0.49513487  0.17815799     0.20200
C436        C  0.26371999  0.50250665  0.22700798    -0.03300
C437        C  0.22774838  0.49948233  0.26271686    -0.06400
C438        C  0.17980808  0.48916709  0.24964951     0.20500
C439        C  0.23979422  0.50711012  0.31147034     0.18700
C440        C  0.28745024  0.51745170  0.32422902    -0.17900
C441        C  0.32305443  0.52036944  0.28890767    -0.20100
C442        C  0.31157025  0.51295027  0.24026206     0.20200
C443        C  0.34725165  0.51540857  0.20477334    -0.33100
C444        C  0.33594908  0.50745725  0.15599897     0.00800
C445        C  0.28791548  0.49793185  0.14296167    -0.24500
C446        C  0.14413925  0.48717327  0.28549304    -0.29000
C447        C  0.15590410  0.49534596  0.33425326     0.06500
C448        C  0.20399471  0.50485019  0.34672700    -0.27700
H449        H  0.13186378  0.47353784  0.19018067     0.11200
H450        H  0.19440314  0.47869820  0.12811122     0.12400
H451        H  0.29717634  0.52343205  0.36157238     0.11400
H452        H  0.35961075  0.52841747  0.29965743     0.10700
H453        H  0.38395768  0.52315086  0.21530599     0.16100
H454        H  0.27866839  0.49167738  0.10552620     0.12000
H455        H  0.10729660  0.47958557  0.27535947     0.14800
H456        H  0.21369392  0.51135100  0.38400216     0.14600
C457        C  0.21189825  0.51689882  0.82250050    -0.18300
C458        C  0.17682016  0.51730494  0.78662409    -0.20400
C459        C  0.18911348  0.50733135  0.73864892     0.20200
C460        C  0.23714045  0.49668892  0.72652277    -0.03300
C461        C  0.27257236  0.49614496  0.76280585    -0.06400
C462        C  0.25977321  0.50640001  0.81094880     0.20500
C463        C  0.32069551  0.48557324  0.75093471     0.18700
C464        C  0.33288601  0.47537258  0.70287235    -0.17900
C465        C  0.29769542  0.47600667  0.66680812    -0.20100
C466        C  0.24972933  0.48676828  0.67824230     0.20200
C467        C  0.21409647  0.48783394  0.64239601    -0.33100
C468        C  0.16601712  0.49841941  0.65439745     0.00800
C469        C  0.15404614  0.50799129  0.70268830    -0.24500
C470        C  0.29501134  0.50628437  0.84680418    -0.29000
C471        C  0.34315984  0.49622515  0.83542150     0.06500
C472        C  0.35571234  0.48567137  0.78731699    -0.27700
H473        H  0.20158186  0.52487005  0.85931102     0.11200
H474        H  0.14004248  0.52554510  0.79639427     0.12400
H475        H  0.36966725  0.46708065  0.69314595     0.11400
H476        H  0.30801239  0.46817232  0.62996845     0.10700
H477        H  0.22376629  0.48011763  0.60533877     0.16100
H478        H  0.11728276  0.51633973  0.71248044     0.12000
H479        H  0.28487094  0.51463873  0.88359959     0.14800
H480        H  0.39268290  0.47757005  0.77811068     0.14600
C481        C  0.79255331  0.46424084  0.82872113    -0.18300
C482        C  0.82898329  0.46641747  0.79394758    -0.20400
C483        C  0.81884099  0.48193438  0.74687032     0.20200
C484        C  0.77136136  0.49501259  0.73470138    -0.03300
C485        C  0.73460698  0.49280741  0.76977832    -0.06400
C486        C  0.74531713  0.47762382  0.81709719     0.20500
C487        C  0.68726337  0.50622091  0.75755528     0.18700
C488        C  0.67700371  0.52154536  0.71048876    -0.17900
C489        C  0.71334669  0.52368116  0.67578247    -0.20100
C490        C  0.76056792  0.51049444  0.68752883     0.20200
C491        C  0.79706416  0.51242436  0.65280474    -0.33100
C492        C  0.84453916  0.49926919  0.66435295     0.00800
C493        C  0.85519937  0.48440095  0.71171730    -0.24500
C494        C  0.70880065  0.47680298  0.85208419    -0.29000
C495        C  0.66160419  0.49090205  0.84037073     0.06500
C496        C  0.65111947  0.50484542  0.79272959    -0.27700
H497        H  0.80140752  0.45236850  0.86483727     0.11200
H498        H  0.86515672  0.45606842  0.80393344     0.12400
H499        H  0.64086756  0.53209089  0.70055203     0.11400
H500        H  0.70451178  0.53571079  0.63971050     0.10700
H501        H  0.78838525  0.52433576  0.61663395     0.16100
H502        H  0.89155076  0.47397403  0.72103298     0.12000
H503        H  0.71724803  0.46556411  0.88852122     0.14800
H504        H  0.61501058  0.51592742  0.78320388     0.14600
C505        C  0.72106765  0.81427890  0.05721956    -0.18300
C506        C  0.68548077  0.77864866  0.05616344    -0.20400
C507        C  0.69057898  0.73805844  0.02637152     0.20200
C508        C  0.73202648  0.73311932  0.99747532    -0.03300
C509        C  0.76796934  0.76907499  0.99856896    -0.06400
C510        C  0.76239626  0.80986811  0.02856176     0.20500
C511        C  0.80948544  0.76413726  0.96976114     0.18700
C512        C  0.81422358  0.72384405  0.93945747    -0.17900
C513        C  0.77862967  0.68816648  0.93842754    -0.20100
C514        C  0.73762912  0.69222523  0.96760173     0.20200
C515        C  0.70216227  0.65616685  0.96752783    -0.33100
C516        C  0.66073211  0.66115960  0.99605383     0.00800
C517        C  0.65499551  0.70230357  0.02504640    -0.24500
C518        C  0.79830244  0.84543424  0.02946004    -0.29000
C519        C  0.84020250  0.84021497  0.00161775     0.06500
C520        C  0.84555070  0.79950185  0.97186100    -0.27700
H521        H  0.71628698  0.84528667  0.08052307     0.11200
H522        H  0.65393459  0.78284330  0.07866315     0.12400
H523        H  0.84564232  0.71976416  0.91675733     0.11400
H524        H  0.78328668  0.65726341  0.91496033     0.10700
H525        H  0.70638601  0.62457629  0.94484696     0.16100
H526        H  0.62315524  0.70598971  0.04727388     0.12000
H527        H  0.79405458  0.87684696  0.05238460     0.14800
H528        H  0.87747650  0.79580047  0.94976584     0.14600
C529        C  0.70506587  0.17150029  0.00183119    -0.18300
C530        C  0.66946418  0.20699151  0.00343400    -0.20400
C531        C  0.68199595  0.25592007  0.00646113     0.20200
C532        C  0.73089157  0.26925941  0.00807740    -0.03300
C533        C  0.76684109  0.23342463  0.00637152    -0.06400
C534        C  0.75380164  0.18432811  0.00327887     0.20500
C535        C  0.81573862  0.24673136  0.00757708     0.18700
C536        C  0.82827964  0.29570440  0.01065552    -0.17900
C537        C  0.79264479  0.33122074  0.01243288    -0.20100
C538        C  0.74388460  0.31836424  0.01097483     0.20200
C539        C  0.70794717  0.35377046  0.01157841    -0.33100
C540        C  0.65902719  0.34085256  0.00894546     0.00800
C541        C  0.64645804  0.29169569  0.00711584    -0.24500
C542        C  0.78963113  0.14884959  0.00181097    -0.29000
C543        C  0.83854582  0.16163439  0.00330324     0.06500
C544        C  0.85120915  0.21085045  0.00588040    -0.27700
H545        H  0.69446210  0.13396743  0.99939010     0.11200
H546        H  0.63208350  0.19616209  0.00207787     0.12400
H547        H  0.86566880  0.30655246  0.01165028     0.11400
H548        H  0.80323413  0.36877870  0.01465040     0.10700
H549        H  0.71824804  0.39144414  0.01336744     0.16100
H550        H  0.60900189  0.28114357  0.00530378     0.12000
H551        H  0.77928356  0.11121646  0.99960684     0.14800
H552        H  0.88869849  0.22137699  0.00701859     0.14600
C553        C  0.29503587  0.83334120  0.99672786    -0.18300
C554        C  0.33071290  0.79786852  0.99509752    -0.20400
C555        C  0.31825787  0.74891917  0.99157677     0.20200
C556        C  0.26937938  0.73560382  0.98944641    -0.03300
C557        C  0.23338215  0.77137808  0.99127301    -0.06400
C558        C  0.24630103  0.82046112  0.99492505     0.20500
C559        C  0.18451633  0.75797902  0.98959023     0.18700
C560        C  0.17204000  0.70907428  0.98583753    -0.17900
C561        C  0.20769607  0.67365536  0.98384925    -0.20100
C562        C  0.25641100  0.68653903  0.98582720     0.20200
C563        C  0.29229061  0.65112152  0.98496494    -0.33100
C564        C  0.34118058  0.66388907  0.98815877     0.00800
C565        C  0.35379128  0.71306019  0.99080748    -0.24500
C566        C  0.21031264  0.85580101  0.99665148    -0.29000
C567        C  0.16140631  0.84280570  0.99486897     0.06500
C568        C  0.14894371  0.79365784  0.99154274    -0.27700
H569        H  0.30557207  0.87087303  0.99951534     0.11200
H570        H  0.36807453  0.80872263  0.99676821     0.12400
H571        H  0.13467064  0.69820004  0.98445793     0.11400
H572        H  0.19715068  0.63612656  0.98105962     0.10700
H573        H  0.28194346  0.61349744  0.98256044     0.16100
H574        H  0.39124154  0.72352903  0.99310166     0.12000
H575        H  0.22052072  0.89344129  0.99937244     0.14800
H576        H  0.11149771  0.78300076  0.99019338     0.14600
C577        C  0.29032107  0.17418388  0.99989388    -0.18300
C578        C  0.32616071  0.20945642  0.99963066    -0.20400
C579        C  0.31414367  0.25837336  0.00413224     0.20200
C580        C  0.26557146  0.27191119  0.00941857    -0.03300
C581        C  0.22935981  0.23627386  0.00965976    -0.06400
C582        C  0.24189221  0.18725988  0.00460283     0.20500
C583        C  0.18070299  0.24969229  0.01449482     0.18700
C584        C  0.16878605  0.29862631  0.01974260    -0.17900
C585        C  0.20471410  0.33398569  0.01951295    -0.20100
C586        C  0.25315441  0.32100909  0.01404023     0.20200
C587        C  0.28933560  0.35624740  0.01274629    -0.33100
C588        C  0.33789634  0.34308759  0.00691256     0.00800
C589        C  0.34988755  0.29392848  0.00303368    -0.24500
C590        C  0.20585555  0.15208454  0.00379898    -0.29000
C591        C  0.15712717  0.16496531  0.00768868     0.06500
C592        C  0.14488441  0.21398643  0.01349772    -0.27700
H593        H  0.30047006  0.13664873  0.99608302     0.11200
H594        H  0.36329425  0.19847723  0.99563114     0.12400
H595        H  0.13164232  0.30959235  0.02368752     0.11400
H596        H  0.19458015  0.37152810  0.02330588     0.10700
H597        H  0.27955739  0.39393370  0.01615650     0.16100
H598        H  0.38705860  0.28319576  0.99857184     0.12000
H599        H  0.21594611  0.11457052  0.99954872     0.14800
H600        H  0.10753597  0.22448442  0.01688163     0.14600
C601        C  0.78983969  0.98983482  0.67445454    -0.18300
C602        C  0.82558784  0.98954312  0.70982617    -0.20400
C603        C  0.81337675  0.99356567  0.75872810     0.20200
C604        C  0.76465321  0.99752543  0.77216894    -0.03300
C605        C  0.72853140  0.99766777  0.73644748    -0.06400
C606        C  0.74127782  0.99396431  0.68740716     0.20500
C607        C  0.67974987  0.00149675  0.74980852     0.18700
C608        C  0.66758295  0.00509691  0.79878178    -0.17900
C609        C  0.70339204  0.00506576  0.83418294    -0.20100
C610        C  0.75199968  0.00141599  0.82124640     0.20200
C611        C  0.78812571  0.00184155  0.85650391    -0.33100
C612        C  0.83690702  0.99850306  0.84342337     0.00800
C613        C  0.84907997  0.99397483  0.79433590    -0.24500
C614        C  0.70531424  0.99432644  0.65210466    -0.29000
C615        C  0.65644705  0.99812056  0.66489960     0.06500
C616        C  0.64403719  0.00161724  0.71401265    -0.27700
H617        H  0.80018828  0.98683382  0.63692250     0.11200
H618        H  0.86282520  0.98635592  0.69890671     0.12400
H619        H  0.63033636  0.00800257  0.80972544     0.11400
H620        H  0.69305425  0.00798900  0.87172168     0.10700
H621        H  0.77815119  0.00518354  0.89411929     0.16100
H622        H  0.88641275  0.99095316  0.78364532     0.12000
H623        H  0.71557904  0.99140610  0.61453113     0.14800
H624        H  0.60664265  0.00464399  0.72445879     0.14600
C625        C  0.32392703  0.98060456  0.78935993    -0.18300
C626        C  0.28853576  0.98242527  0.82504751    -0.20400
C627        C  0.24018840  0.98929820  0.81259101     0.20200
C628        C  0.22723068  0.99374134  0.76364822    -0.03300
C629        C  0.26301579  0.99188848  0.72756180    -0.06400
C630        C  0.31158780  0.98565879  0.74059442     0.20500
C631        C  0.25026354  0.99675398  0.67858856     0.18700
C632        C  0.20174380  0.00284356  0.66614450    -0.17900
C633        C  0.16626468  0.00464683  0.70191417    -0.20100
C634        C  0.17864537  0.00036574  0.75079177     0.20200
C635        C  0.14339887  0.00275117  0.78701435    -0.33100
C636        C  0.15610667  0.99879426  0.83606900     0.00800
C637        C  0.20470609  0.99192547  0.84832416    -0.24500
C638        C  0.34712913  0.98525467  0.70479711    -0.29000
C639        C  0.33506937  0.99115584  0.65583439     0.06500
C640        C  0.28628668  0.99616432  0.64304813    -0.27700
H641        H  0.36105138  0.97561424  0.79995292     0.11200
H642        H  0.29903602  0.97873060  0.86246589     0.12400
H643        H  0.19125021  0.00655787  0.62872955     0.11400
H644        H  0.12913508  0.00964009  0.69134152     0.10700
H645        H  0.10614430  0.00792950  0.77693212     0.16100
H646        H  0.21510478  0.98840741  0.88580134     0.12000
H647        H  0.38436734  0.98087223  0.71531050     0.14800
H648        H  0.27632349  0.00051810  0.60554419     0.14600
C649        C  0.21201261  0.00589831  0.32517739    -0.18300
C650        C  0.17628027  0.00807471  0.28996883    -0.20400
C651        C  0.18858829  0.00883242  0.24097803     0.20200
C652        C  0.23738867  0.00852743  0.22724808    -0.03300
C653        C  0.27352158  0.00685863  0.26285488    -0.06400
C654        C  0.26062711  0.00501832  0.31196090     0.20500
C655        C  0.32240304  0.00669963  0.24935300     0.18700
C656        C  0.33465585  0.00857486  0.20028661    -0.17900
C657        C  0.29877959  0.00974818  0.16491965    -0.20100
C658        C  0.25004321  0.00933140  0.17803198     0.20200
C659        C  0.21373925  0.00900021  0.14289084    -0.33100
C660        C  0.16486900  0.00810332  0.15636554     0.00800
C661        C  0.15280939  0.00896994  0.20558720    -0.24500
C662        C  0.29645865  0.00255251  0.34716197    -0.29000
C663        C  0.34538032  0.00266991  0.33432277     0.06500
C664        C  0.35805156  0.00470224  0.28515671    -0.27700
H665        H  0.20160560  0.00480892  0.36279347     0.11200
H666        H  0.13896039  0.00853895  0.30105569     0.12400
H667        H  0.37199032  0.00875071  0.18924059     0.11400
H668        H  0.30915871  0.01066724  0.12729124     0.10700
H669        H  0.22364627  0.00885014  0.10511038     0.16100
H670        H  0.11544774  0.00886379  0.21658680     0.12000
H671        H  0.28600004  0.00101271  0.38476043     0.14800
H672        H  0.39556035  0.00482660  0.27467833     0.14600
C673        C  0.67544890  0.99358353  0.21116154    -0.18300
C674        C  0.71077346  0.99048815  0.17558323    -0.20400
C675        C  0.75952345  0.98981998  0.18827356     0.20200
C676        C  0.77287144  0.99085463  0.23730539    -0.03300
C677        C  0.73716757  0.99363453  0.27326641    -0.06400
C678        C  0.68832209  0.99561687  0.25998444     0.20500
C679        C  0.75033923  0.99497216  0.32236136     0.18700
C680        C  0.79912114  0.99271872  0.33502736    -0.17900
C681        C  0.83457877  0.99029830  0.29931688    -0.20100
C682        C  0.82183539  0.98998295  0.25035722     0.20200
C683        C  0.85712957  0.98994968  0.21422538    -0.33100
C684        C  0.84405963  0.99077859  0.16515348     0.00800
C685        C  0.79507924  0.98942021  0.15265907    -0.24500
C686        C  0.65305780  0.99945750  0.29565390    -0.29000
C687        C  0.66560655  0.00070869  0.34477810     0.06500
C688        C  0.71450069  0.99850025  0.35782642    -0.27700
H689        H  0.63803202  0.99468338  0.20046602     0.11200
H690        H  0.69997779  0.98940190  0.13807858     0.12400
H691        H  0.80988519  0.99331896  0.37254876     0.11400
H692        H  0.87200318  0.98924990  0.30998664     0.10700
H693        H  0.89471210  0.99028449  0.22442041     0.16100
H694        H  0.78438557  0.98928219  0.11509549     0.12000
H695        H  0.61564836  0.00094593  0.28493880     0.14800
H696        H  0.72473949  0.99925096  0.39550807     0.14600
C697        C  0.04510243  0.32407052  0.78820251    -0.18300
C698        C  0.04559992  0.28815464  0.82358848    -0.20400
C699        C  0.02136441  0.24437564  0.81606018     0.20200
C700        C  0.99677641  0.23650257  0.77225464    -0.03300
C701        C  0.99637337  0.27266487  0.73653218    -0.06400
C702        C  0.02054242  0.31669999  0.74463649     0.20500
C703        C  0.97209843  0.26457507  0.69258913     0.18700
C704        C  0.94803214  0.22075945  0.68496291    -0.17900
C705        C  0.94836796  0.18495634  0.72039130    -0.20100
C706        C  0.97273587  0.19241911  0.76401822     0.20200
C707        C  0.97346307  0.15654303  0.79951715    -0.33100
C708        C  0.99739819  0.16430279  0.84341953     0.00800
C709        C  0.02124244  0.20832929  0.85151098    -0.24500
C710        C  0.02032184  0.35225965  0.70873948    -0.29000
C711        C  0.99725107  0.34387475  0.66441130     0.06500
C712        C  0.97284253  0.30015541  0.65678072    -0.27700
H713        H  0.06407912  0.35756352  0.79484173     0.11200
H714        H  0.06488872  0.29464938  0.85688766     0.12400
H715        H  0.92916549  0.21406608  0.65145827     0.11400
H716        H  0.92968075  0.15133251  0.71360144     0.10700
H717        H  0.95481555  0.12275832  0.79325856     0.16100
H718        H  0.04017511  0.21426656  0.88515363     0.12000
H719        H  0.03922610  0.38594050  0.71477479     0.14800
H720        H  0.95439642  0.29385195  0.62292909     0.14600
C721        C  0.04488201  0.78924958  0.67793700    -0.18300
C722        C  0.04370419  0.82503397  0.71351829    -0.20400
C723        C  0.02206623  0.81597101  0.75829699     0.20200
C724        C  0.00202125  0.77013330  0.76760049    -0.03300
C725        C  0.00333210  0.73396229  0.73171784    -0.06400
C726        C  0.02448801  0.74374063  0.68650504     0.20500
C727        C  0.98328820  0.68815036  0.74101724     0.18700
C728        C  0.96213851  0.67888844  0.78602705    -0.17900
C729        C  0.96071635  0.71475475  0.82151802    -0.20100
C730        C  0.98058168  0.76044621  0.81268079     0.20200
C731        C  0.97953660  0.79653360  0.84815923    -0.33100
C732        C  0.99936704  0.84235812  0.83911390     0.00800
C733        C  0.02028628  0.85186898  0.79394940    -0.24500
C734        C  0.02467757  0.70797225  0.65059418    -0.29000
C735        C  0.00469124  0.66222642  0.65951942     0.06500
C736        C  0.98444337  0.65253139  0.70505208    -0.27700
H737        H  0.06157344  0.79726170  0.64358350     0.11200
H738        H  0.05956561  0.85991372  0.70592247     0.12400
H739        H  0.94653896  0.64391607  0.79373939     0.11400
H740        H  0.94408068  0.70674180  0.85591145     0.10700
H741        H  0.96301588  0.78904444  0.88275514     0.16100
H742        H  0.03598232  0.88696147  0.78685487     0.12000
H743        H  0.04077383  0.71557727  0.61583650     0.14800
H744        H  0.96873933  0.61746058  0.71222611     0.14600
C745        C  0.95348437  0.81631234  0.28081971    -0.18300
C746        C  0.95213662  0.78003455  0.31570199    -0.20400
C747        C  0.97757967  0.73694540  0.30881724     0.20200
C748        C  0.00486797  0.73028737  0.26644701    -0.03300
C749        C  0.00618389  0.76693381  0.23116081    -0.06400
C750        C  0.98025170  0.81006704  0.23844830     0.20500
C751        C  0.03309682  0.76030509  0.18853380     0.18700
C752        C  0.05945868  0.71758094  0.18222237    -0.17900
C753        C  0.05827006  0.68126751  0.21730951    -0.20100
C754        C  0.03061265  0.68700600  0.25927117     0.20200
C755        C  0.02818355  0.65038712  0.29422472    -0.33100
C756        C  0.00114323  0.65708060  0.33658586     0.00800
C757        C  0.97618045  0.70047582  0.34365592    -0.24500
C758        C  0.98113635  0.84608833  0.20309955    -0.29000
C759        C  0.00676776  0.83931351  0.16002069     0.06500
C760        C  0.03281044  0.79638108  0.15294479    -0.27700
H761        H  0.93339312  0.84921988  0.28689886     0.11200
H762        H  0.93108010  0.78564634  0.34806997     0.12400
H763        H  0.08072897  0.71209645  0.14997278     0.11400
H764        H  0.07870103  0.64853056  0.21144936     0.10700
H765        H  0.04799750  0.61713024  0.28898248     0.16100
H766        H  0.95523551  0.70563412  0.37621534     0.12000
H767        H  0.96086217  0.87903244  0.20857972     0.14800
H768        H  0.05306477  0.79128556  0.11994798     0.14600
C769        C  0.06831549  0.23384908  0.30395099    -0.18300
C770        C  0.06894007  0.19865575  0.26793279    -0.20400
C771        C  0.03140646  0.19577912  0.23435446     0.20200
C772        C  0.99263093  0.22848959  0.23711650    -0.03300
C773        C  0.99206401  0.26408977  0.27338200    -0.06400
C774        C  0.03020468  0.26674525  0.30684219     0.20500
C775        C  0.95364148  0.29725445  0.27590497     0.18700
C776        C  0.91546329  0.29353488  0.24306784    -0.17900
C777        C  0.91594113  0.25805377  0.20715043    -0.20100
C778        C  0.95467741  0.22585529  0.20343564     0.20200
C779        C  0.95643847  0.19127000  0.16651980    -0.33100
C780        C  0.99512132  0.15890157  0.16374438     0.00800
C781        C  0.03210358  0.16087758  0.19792462    -0.24500
C782        C  0.02980263  0.30252831  0.34236417    -0.29000
C783        C  0.99249493  0.33632172  0.34404253     0.06500
C784        C  0.95443356  0.33371046  0.31098060    -0.27700
H785        H  0.09778801  0.23551310  0.32940769     0.11200
H786        H  0.09888329  0.17376502  0.26623025     0.12400
H787        H  0.88545282  0.31834128  0.24489492     0.11400
H788        H  0.88626920  0.25612842  0.18194953     0.10700
H789        H  0.92765092  0.18910804  0.14026884     0.16100
H790        H  0.06182004  0.13570027  0.19553217     0.12000
H791        H  0.05907555  0.30493499  0.36806612     0.14800
H792        H  0.92547596  0.35980023  0.31288758     0.14600
loop_ 
_geom_bond_atom_site_label_1 
_geom_bond_atom_site_label_2 
_geom_bond_distance 
_geom_bond_site_symmetry_2 
_ccdc_geom_bond_type 
O1          Zr37   2.435       .  S
O1           C12   1.291   1_455  A
O2          Zr36   2.440       .  S
O2           C13   1.293       .  A
O3           Zr9   2.432   1_455  S
O3           C14   1.291       .  A
O4           Zr9   2.429       .  S
O4           C15   1.291       .  A
O5          Zr39   2.448       .  S
O5           C15   1.295       .  A
O6          Zr38   2.442   1_554  S
O6           C14   1.294       .  A
O7           Zr9   2.434   1_556  S
O7           C13   1.292       .  A
O8           Zr9   2.439       .  S
O8           C12   1.292       .  A
Zr9          O10   2.340   1_554  S
Zr9          O11   2.337   1_655  S
Zr9          O19   2.341       .  S
Zr9          O17   2.348   1_654  S
O10         Zr36   2.342       .  S
O10         Zr39   2.339   1_556  S
O11         Zr37   2.335       .  S
O11         Zr38   2.338   1_554  S
C12         C780   1.465       .  S
C13         C708   1.476       .  S
C14         C591   1.485       .  S
C15         C543   1.486       .  S
H16          O17   0.965       .  S
O17         Zr36   2.343   1_455  S
O17         Zr38   2.336       .  S
H18          O19   0.965       .  S
O19         Zr37   2.345   1_655  S
O19         Zr39   2.337       .  S
O20         Zr36   2.443   1_565  S
O20          C43   1.293       .  A
O21         Zr37   2.439   1_565  S
O21          C44   1.293       .  A
O22         Zr38   2.443       .  S
O22          C45   1.294       .  A
O23         Zr39   2.442   1_556  S
O23          C46   1.294   1_545  A
O24         Zr39   2.435   1_565  S
O24          C47   1.293       .  A
O25         Zr38   2.428   1_554  S
O25          C48   1.291       .  A
O26         Zr40   2.436   1_556  S
O26          C49   1.293       .  A
O27         Zr40   2.451   1_655  S
O27          C50   1.295       .  A
O28         Zr38   2.440   1_565  S
O28          C49   1.293       .  A
O29         Zr39   2.436   1_565  S
O29          C50   1.292       .  A
O30         Zr36   2.437   1_455  S
O30          C45   1.292       .  A
O31         Zr37   2.446       .  S
O31          C48   1.295       .  A
O32         Zr37   2.436   1_665  S
O32          C47   1.292       .  A
O33         Zr36   2.433       .  S
O33          C46   1.292   1_545  A
O34         Zr40   2.436   1_656  S
O34          C43   1.292       .  A
O35         Zr40   2.443       .  S
O35          C44   1.293       .  A
Zr36         O42   2.336   1_645  S
Zr36         O54   2.341   1_545  S
Zr37         O41   2.339   1_445  S
Zr37         O52   2.336   1_545  S
Zr38         O42   2.336   1_545  S
Zr38         O52   2.343   1_546  S
Zr39         O41   2.342   1_545  S
Zr39         O54   2.339   1_544  S
Zr40         O41   2.336   1_455  S
Zr40         O42   2.341   1_554  S
Zr40         O54   2.340   1_454  S
Zr40         O52   2.344       .  S
C43         C732   1.480       .  S
C44         C759   1.477       .  S
C45         C636   1.488   1_545  S
C46         C612   1.485       .  S
C47         C684   1.483       .  S
C48         C660   1.485       .  S
C49         C567   1.485       .  S
C50         C519   1.478       .  S
H51          O52   0.965       .  S
H53          O54   0.965       .  S
O55         Zr91   2.435       .  S
O55          C66   1.291       .  A
O56         Zr90   2.425       .  S
O56          C67   1.290   1_455  A
O57         Zr63   2.434   1_455  S
O57          C68   1.292       .  A
O58         Zr63   2.436       .  S
O58          C69   1.293       .  A
O59         Zr93   2.431       .  S
O59          C69   1.291       .  A
O60         Zr92   2.436       .  S
O60          C68   1.293       .  A
O61         Zr63   2.443       .  S
O61          C67   1.294       .  A
O62         Zr63   2.430       .  S
O62          C66   1.291       .  A
Zr63         O64   2.332       .  S
Zr63         O65   2.342   1_655  S
Zr63         O73   2.336       .  S
Zr63         O71   2.338   1_655  S
O64         Zr90   2.336   1_655  S
O64         Zr93   2.338       .  S
O65         Zr91   2.340   1_455  S
O65         Zr92   2.336       .  S
C66         C783   1.461       .  S
C67         C711   1.475       .  S
C68         C372   1.483       .  S
C69         C324   1.482       .  S
H70          O71   0.965       .  S
O71         Zr90   2.343       .  S
O71         Zr92   2.343       .  S
H72          O73   0.965       .  S
O73         Zr91   2.338       .  S
O73         Zr93   2.333       .  S
O74         Zr90   2.433       .  S
O74          C97   1.292       .  A
O75         Zr91   2.438       .  S
O75          C98   1.292       .  A
O76         Zr92   2.431       .  S
O76          C99   1.291       .  A
O77         Zr93   2.438       .  S
O77         C100   1.293       .  A
O78         Zr93   2.449       .  S
O78         C101   1.294       .  A
O79         Zr92   2.437       .  S
O79         C102   1.293       .  A
O80         Zr94   2.437       .  S
O80         C103   1.293       .  A
O81         Zr94   2.443   1_655  S
O81         C104   1.294       .  A
O82         Zr92   2.439       .  S
O82         C103   1.293       .  A
O83         Zr93   2.430       .  S
O83         C104   1.291       .  A
O84         Zr90   2.441       .  S
O84          C99   1.294       .  A
O85         Zr91   2.440   1_455  S
O85         C102   1.292       .  A
O86         Zr91   2.438       .  S
O86         C101   1.293       .  A
O87         Zr90   2.445   1_655  S
O87         C100   1.294       .  A
O88         Zr94   2.457       .  S
O88          C97   1.296       .  A
O89         Zr94   2.444       .  S
O89          C98   1.294   1_455  A
Zr90         O96   2.335       .  S
Zr90        O108   2.340   1_455  S
Zr91         O95   2.344       .  S
Zr91        O106   2.346   1_655  S
Zr92         O96   2.340       .  S
Zr92        O106   2.338       .  S
Zr93         O95   2.341       .  S
Zr93        O108   2.342       .  S
Zr94         O95   2.347   1_455  S
Zr94         O96   2.338       .  S
Zr94        O108   2.338   1_455  S
Zr94        O106   2.346       .  S
C97         C735   1.484       .  S
C98         C756   1.476   1_655  S
C99         C468   1.482       .  S
C100        C492   1.486       .  S
C101        C420   1.490       .  S
C102        C447   1.485       .  S
C103        C396   1.482       .  S
C104        C348   1.484       .  S
H105        O106   0.965       .  S
H107        O108   0.965       .  S
O109       Zr145   2.435       .  S
O109        C120   1.292       .  A
O110       Zr144   2.437       .  S
O110        C121   1.293   1_565  A
O111       Zr117   2.437   1_565  S
O111        C122   1.292       .  A
O112       Zr117   2.439       .  S
O112        C123   1.293       .  A
O113       Zr147   2.438       .  S
O113        C123   1.293       .  A
O114       Zr146   2.432       .  S
O114        C122   1.291       .  A
O115       Zr117   2.439       .  S
O115        C121   1.293       .  A
O116       Zr117   2.436       .  S
O116        C120   1.293       .  A
Zr117       O118   2.339       .  S
Zr117       O119   2.338   1_545  S
Zr117       O127   2.336       .  S
Zr117       O125   2.343   1_545  S
O118       Zr144   2.340   1_545  S
O118       Zr147   2.338       .  S
O119       Zr145   2.339   1_565  S
O119       Zr146   2.337       .  S
C120        C687   1.484       .  S
C121        C663   1.485       .  S
C122        C252   1.468       .  S
C123        C231   1.486       .  S
H124        O125   0.965       .  S
O125       Zr144   2.339       .  S
O125       Zr146   2.337       .  S
H126        O127   0.965       .  S
O127       Zr145   2.339       .  S
O127       Zr147   2.340       .  S
O128       Zr144   2.445       .  S
O128        C151   1.294       .  A
O129       Zr145   2.433       .  S
O129        C152   1.292   1_545  A
O130       Zr146   2.434       .  S
O130        C153   1.291       .  A
O131       Zr147   2.444       .  S
O131        C154   1.294       .  A
O132       Zr147   2.443       .  S
O132        C155   1.294       .  A
O133       Zr146   2.438       .  S
O133        C156   1.293       .  A
O134       Zr148   2.426       .  S
O134        C157   1.291       .  A
O135       Zr148   2.433   1_545  S
O135        C158   1.292       .  A
O136       Zr146   2.425       .  S
O136        C157   1.290       .  A
O137       Zr147   2.434       .  S
O137        C158   1.293       .  A
O138       Zr144   2.437       .  S
O138        C153   1.293       .  A
O139       Zr145   2.438   1_565  S
O139        C156   1.293       .  A
O140       Zr145   2.433       .  S
O140        C155   1.292       .  A
O141       Zr144   2.431   1_545  S
O141        C154   1.292       .  A
O142       Zr148   2.443       .  S
O142        C151   1.294       .  A
O143       Zr148   2.449       .  S
O143        C152   1.295       .  A
Zr144       O150   2.332       .  S
Zr144       O162   2.343   1_565  S
Zr145       O149   2.339       .  S
Zr145       O160   2.339   1_545  S
Zr146       O150   2.335       .  S
Zr146       O160   2.342       .  S
Zr147       O149   2.340       .  S
Zr147       O162   2.341       .  S
Zr148       O149   2.338   1_565  S
Zr148       O150   2.336       .  S
Zr148       O162   2.341   1_565  S
Zr148       O160   2.341       .  S
C151        C639   1.490       .  S
C152        C615   1.488       .  S
C153        C399   1.481       .  S
C154        C375   1.485       .  S
C155        C327   1.484       .  S
C156        C351   1.486       .  S
C157        C276   1.476       .  S
C158        C300   1.482       .  S
H159        O160   0.965       .  S
H161        O162   0.965       .  S
O163       Zr199   2.440       .  S
O163        C174   1.293       .  A
O164       Zr198   2.441       .  S
O164        C175   1.293       .  A
O165       Zr171   2.432   1_554  S
O165        C176   1.292       .  A
O166       Zr171   2.439       .  S
O166        C177   1.293       .  A
O167       Zr201   2.429       .  S
O167        C177   1.290       .  A
O168       Zr200   2.443       .  S
O168        C176   1.294       .  A
O169       Zr171   2.438       .  S
O169        C175   1.293       .  A
O170       Zr171   2.435   1_554  S
O170        C174   1.292       .  A
Zr171       O172   2.333       .  S
Zr171       O173   2.341   1_556  S
Zr171       O181   2.341       .  S
Zr171       O179   2.342   1_556  S
O172       Zr198   2.338       .  S
O172       Zr201   2.337       .  S
O173       Zr199   2.342       .  S
O173       Zr200   2.339       .  S
C174        C588   1.484       .  S
C175        C564   1.486       .  S
C176        C444   1.483       .  S
C177        C471   1.480       .  S
H178        O179   0.965       .  S
O179       Zr198   2.340   1_554  S
O179       Zr200   2.343       .  S
H180        O181   0.965       .  S
O181       Zr199   2.340   1_556  S
O181       Zr201   2.340       .  S
O182       Zr198   2.436       .  S
O182        C205   1.292       .  A
O183       Zr199   2.441       .  S
O183        C206   1.294       .  A
O184       Zr200   2.438       .  S
O184        C207   1.292       .  A
O185       Zr201   2.430       .  S
O185        C208   1.291       .  A
O186       Zr201   2.423       .  S
O186        C209   1.290       .  A
O187       Zr200   2.452       .  S
O187        C210   1.295       .  A
O188       Zr202   2.443       .  S
O188        C211   1.294       .  A
O189       Zr202   2.445   1_556  S
O189        C212   1.294       .  A
O190       Zr200   2.441       .  S
O190        C211   1.293       .  A
O191       Zr201   2.435       .  S
O191        C212   1.292       .  A
O192       Zr198   2.439   1_554  S
O192        C207   1.292       .  A
O193       Zr199   2.431       .  S
O193        C210   1.292       .  A
O194       Zr199   2.442   1_556  S
O194        C209   1.293       .  A
O195       Zr198   2.429       .  S
O195        C208   1.292       .  A
O196       Zr202   2.440   1_556  S
O196        C205   1.292       .  A
O197       Zr202   2.430       .  S
O197        C206   1.291       .  A
Zr198       O204   2.337   1_556  S
Zr198       O216   2.342       .  S
Zr199       O203   2.337   1_554  S
Zr199       O214   2.336       .  S
Zr200       O204   2.343       .  S
Zr200       O214   2.338       .  S
Zr201       O203   2.334       .  S
Zr201       O216   2.339       .  S
Zr202       O203   2.338   1_554  S
Zr202       O204   2.340       .  S
Zr202       O216   2.340   1_554  S
Zr202       O214   2.339       .  S
C205        C516   1.473       .  S
C206        C540   1.484       .  S
C207        C255   1.471       .  S
C208        C279   1.478       .  S
C209        C303   1.482       .  S
C210        C228   1.488       .  S
C211        C423   1.489       .  S
C212        C495   1.486       .  S
H213        O214   0.964       .  S
H215        O216   0.965       .  S
C217        C218   1.398       .  A
C217        C222   1.403       .  A
C217        H233   1.084       .  S
C218        C219   1.404       .  A
C218        H234   1.084       .  S
C219        C229   1.402       .  A
C219        C220   1.411       .  A
C220        C226   1.411       .  A
C220        C221   1.412       .  A
C221        C223   1.411       .  A
C221        C222   1.410       .  A
C222        C230   1.400       .  A
C223        C232   1.405       .  A
C223        C224   1.404       .  A
C224        C225   1.400       .  A
C224        H235   1.084       .  S
C225        C226   1.404       .  A
C225        H236   1.084       .  S
C226        C227   1.405       .  A
C227        C228   1.409       .  A
C227        H237   1.084       .  S
C228        C229   1.410       .  A
C229        H238   1.084       .  S
C230        C231   1.408       .  A
C230        H239   1.084       .  S
C231        C232   1.410       .  A
C232        H240   1.084       .  S
C241        C242   1.398       .  A
C241        C246   1.403       .  A
C241        H257   1.084       .  S
C242        C243   1.403       .  A
C242        H258   1.084       .  S
C243        C253   1.400       .  A
C243        C244   1.412       .  A
C244        C250   1.413       .  A
C244        C245   1.410       .  A
C245        C247   1.413       .  A
C245        C246   1.412       .  A
C246        C254   1.400       .  A
C247        C256   1.404       .  A
C247        C248   1.404       .  A
C248        C249   1.400       .  A
C248        H259   1.084       .  S
C249        C250   1.403       .  A
C249        H260   1.084       .  S
C250        C251   1.403       .  A
C251        C252   1.404       .  A
C251        H261   1.085       .  S
C252        C253   1.404       .  A
C253        H262   1.085       .  S
C254        C255   1.403       .  A
C254        H263   1.085       .  S
C255        C256   1.405       .  A
C256        H264   1.084       .  S
C265        C266   1.399       .  A
C265        C270   1.404       .  A
C265        H281   1.084       .  S
C266        C267   1.404       .  A
C266        H282   1.084       .  S
C267        C277   1.401       .  A
C267        C268   1.411       .  A
C268        C274   1.410       .  A
C268        C269   1.407       .  A
C269        C271   1.410       .  A
C269        C270   1.411       .  A
C270        C278   1.402       .  A
C271        C280   1.395       .  A
C271        C272   1.402       .  A
C272        C273   1.394       .  A
C272        H283   1.084       .  S
C273        C274   1.401       .  A
C273        H284   1.084       .  S
C274        C275   1.395       .  A
C275        C276   1.406       .  A
C275        H285   1.084       .  S
C276        C277   1.409       .  A
C277        H286   1.084       .  S
C278        C279   1.409       .  A
C278        H287   1.084       .  S
C279        C280   1.406       .  A
C280        H288   1.084       .  S
C289        C290   1.396       .  A
C289        C294   1.403       .  A
C289        H305   1.084       .  S
C290        C291   1.402       .  A
C290        H306   1.084       .  S
C291        C301   1.398       .  A
C291        C292   1.410       .  A
C292        C298   1.411       .  A
C292        C293   1.410       .  A
C293        C295   1.411       .  A
C293        C294   1.410       .  A
C294        C302   1.398       .  A
C295        C304   1.403       .  A
C295        C296   1.404       .  A
C296        C297   1.400       .  A
C296        H307   1.084       .  S
C297        C298   1.404       .  A
C297        H308   1.084       .  S
C298        C299   1.404       .  A
C299        C300   1.409       .  A
C299        H309   1.084       .  S
C300        C301   1.407       .  A
C301        H310   1.084       .  S
C302        C303   1.408       .  A
C302        H311   1.084       .  S
C303        C304   1.408       .  A
C304        H312   1.084       .  S
C313        C314   1.399       .  A
C313        C318   1.403       .  A
C313        H329   1.084       .  S
C314        C315   1.403       .  A
C314        H330   1.084       .  S
C315        C325   1.402       .  A
C315        C316   1.411       .  A
C316        C322   1.411       .  A
C316        C317   1.411       .  A
C317        C319   1.411       .  A
C317        C318   1.411       .  A
C318        C326   1.402       .  A
C319        C328   1.402       .  A
C319        C320   1.404       .  A
C320        C321   1.398       .  A
C320        H331   1.084       .  S
C321        C322   1.403       .  A
C321        H332   1.084       .  S
C322        C323   1.401       .  A
C323        C324   1.408       .  A
C323        H333   1.084       .  S
C324        C325   1.409       .  A
C325        H334   1.084       .  S
C326        C327   1.408       .  A
C326        H335   1.084       .  S
C327        C328   1.409       .  A
C328        H336   1.084       .  S
C337        C338   1.399       .  A
C337        C342   1.404       .  A
C337        H353   1.084       .  S
C338        C339   1.403       .  A
C338        H354   1.084       .  S
C339        C349   1.403       .  A
C339        C340   1.411       .  A
C340        C346   1.411       .  A
C340        C341   1.412       .  A
C341        C343   1.411       .  A
C341        C342   1.411       .  A
C342        C350   1.403       .  A
C343        C352   1.402       .  A
C343        C344   1.403       .  A
C344        C345   1.398       .  A
C344        H355   1.084       .  S
C345        C346   1.403       .  A
C345        H356   1.084       .  S
C346        C347   1.402       .  A
C347        C348   1.409       .  A
C347        H357   1.084       .  S
C348        C349   1.408       .  A
C349        H358   1.084       .  S
C350        C351   1.410       .  A
C350        H359   1.084       .  S
C351        C352   1.409       .  A
C352        H360   1.084       .  S
C361        C362   1.397       .  A
C361        C366   1.403       .  A
C361        H377   1.084       .  S
C362        C363   1.403       .  A
C362        H378   1.084       .  S
C363        C373   1.400       .  A
C363        C364   1.411       .  A
C364        C370   1.411       .  A
C364        C365   1.411       .  A
C365        C367   1.411       .  A
C365        C366   1.411       .  A
C366        C374   1.401       .  A
C367        C376   1.403       .  A
C367        C368   1.404       .  A
C368        C369   1.399       .  A
C368        H379   1.084       .  S
C369        C370   1.404       .  A
C369        H380   1.084       .  S
C370        C371   1.403       .  A
C371        C372   1.409       .  A
C371        H381   1.084       .  S
C372        C373   1.408       .  A
C373        H382   1.084       .  S
C374        C375   1.407       .  A
C374        H383   1.084       .  S
C375        C376   1.410       .  A
C376        H384   1.084       .  S
C385        C386   1.397       .  A
C385        C390   1.403       .  A
C385        H401   1.084       .  S
C386        C387   1.403       .  A
C386        H402   1.084       .  S
C387        C397   1.400       .  A
C387        C388   1.411       .  A
C388        C394   1.411       .  A
C388        C389   1.411       .  A
C389        C391   1.411       .  A
C389        C390   1.411       .  A
C390        C398   1.400       .  A
C391        C400   1.403       .  A
C391        C392   1.404       .  A
C392        C393   1.400       .  A
C392        H403   1.084       .  S
C393        C394   1.404       .  A
C393        H404   1.084       .  S
C394        C395   1.404       .  A
C395        C396   1.409       .  A
C395        H405   1.084       .  S
C396        C397   1.407       .  A
C397        H406   1.084       .  S
C398        C399   1.407       .  A
C398        H407   1.084       .  S
C399        C400   1.409       .  A
C400        H408   1.084       .  S
C409        C410   1.398       .  A
C409        C414   1.403       .  A
C409        H425   1.084       .  S
C410        C411   1.404       .  A
C410        H426   1.084       .  S
C411        C421   1.402       .  A
C411        C412   1.410       .  A
C412        C418   1.411       .  A
C412        C413   1.414       .  A
C413        C415   1.411       .  A
C413        C414   1.411       .  A
C414        C422   1.403       .  A
C415        C424   1.406       .  A
C415        C416   1.404       .  A
C416        C417   1.401       .  A
C416        H427   1.084       .  S
C417        C418   1.404       .  A
C417        H428   1.083       .  S
C418        C419   1.407       .  A
C419        C420   1.410       .  A
C419        H429   1.084       .  S
C420        C421   1.410       .  A
C421        H430   1.084       .  S
C422        C423   1.409       .  A
C422        H431   1.084       .  S
C423        C424   1.411       .  A
C424        H432   1.084       .  S
C433        C434   1.401       .  A
C433        C438   1.404       .  A
C433        H449   1.084       .  S
C434        C435   1.404       .  A
C434        H450   1.084       .  S
C435        C445   1.403       .  A
C435        C436   1.410       .  A
C436        C442   1.412       .  A
C436        C437   1.411       .  A
C437        C439   1.410       .  A
C437        C438   1.412       .  A
C438        C446   1.406       .  A
C439        C448   1.398       .  A
C439        C440   1.403       .  A
C440        C441   1.396       .  A
C440        H451   1.084       .  S
C441        C442   1.402       .  A
C441        H452   1.084       .  S
C442        C443   1.400       .  A
C443        C444   1.407       .  A
C443        H453   1.084       .  S
C444        C445   1.410       .  A
C445        H454   1.084       .  S
C446        C447   1.410       .  A
C446        H455   1.084       .  S
C447        C448   1.408       .  A
C448        H456   1.084       .  S
C457        C458   1.395       .  A
C457        C462   1.401       .  A
C457        H473   1.084       .  S
C458        C459   1.402       .  A
C458        H474   1.084       .  S
C459        C469   1.396       .  A
C459        C460   1.410       .  A
C460        C466   1.412       .  A
C460        C461   1.410       .  A
C461        C463   1.411       .  A
C461        C462   1.411       .  A
C462        C470   1.397       .  A
C463        C472   1.403       .  A
C463        C464   1.405       .  A
C464        C465   1.401       .  A
C464        H475   1.084       .  S
C465        C466   1.405       .  A
C465        H476   1.084       .  S
C466        C467   1.405       .  A
C467        C468   1.410       .  A
C467        H477   1.084       .  S
C468        C469   1.406       .  A
C469        H478   1.084       .  S
C470        C471   1.405       .  A
C470        H479   1.084       .  S
C471        C472   1.410       .  A
C472        H480   1.084       .  S
C481        C482   1.401       .  A
C481        C486   1.404       .  A
C481        H497   1.084       .  S
C482        C483   1.404       .  A
C482        H498   1.083       .  S
C483        C493   1.407       .  A
C483        C484   1.412       .  A
C484        C490   1.410       .  A
C484        C485   1.413       .  A
C485        C487   1.411       .  A
C485        C486   1.411       .  A
C486        C494   1.406       .  A
C487        C496   1.402       .  A
C487        C488   1.403       .  A
C488        C489   1.398       .  A
C488        H499   1.084       .  S
C489        C490   1.403       .  A
C489        H500   1.084       .  S
C490        C491   1.401       .  A
C491        C492   1.408       .  A
C491        H501   1.084       .  S
C492        C493   1.409       .  A
C493        H502   1.084       .  S
C494        C495   1.409       .  A
C494        H503   1.084       .  S
C495        C496   1.408       .  A
C496        H504   1.084       .  S
C505        C506   1.399       .  A
C505        C510   1.404       .  A
C505        H521   1.084       .  S
C506        C507   1.403       .  A
C506        H522   1.084       .  S
C507        C517   1.401       .  A
C507        C508   1.412   1_554  A
C508        C514   1.413       .  A
C508        C509   1.412       .  A
C509        C511   1.412       .  A
C509        C510   1.412   1_556  A
C510        C518   1.404       .  A
C511        C520   1.404       .  A
C511        C512   1.404       .  A
C512        C513   1.400       .  A
C512        H523   1.084       .  S
C513        C514   1.404       .  A
C513        H524   1.084       .  S
C514        C515   1.405       .  A
C515        C516   1.406       .  A
C515        H525   1.085       .  S
C516        C517   1.405   1_556  A
C517        H526   1.085       .  S
C518        C519   1.406       .  A
C518        H527   1.085       .  S
C519        C520   1.406   1_554  A
C520        H528   1.085       .  S
C529        C530   1.398       .  A
C529        C534   1.403       .  A
C529        H545   1.083   1_554  S
C530        C531   1.403       .  A
C530        H546   1.084       .  S
C531        C541   1.402       .  A
C531        C532   1.411       .  A
C532        C538   1.411       .  A
C532        C533   1.412       .  A
C533        C535   1.411       .  A
C533        C534   1.411       .  A
C534        C542   1.402       .  A
C535        C544   1.403       .  A
C535        C536   1.404       .  A
C536        C537   1.399       .  A
C536        H547   1.084       .  S
C537        C538   1.404       .  A
C537        H548   1.084       .  S
C538        C539   1.402       .  A
C539        C540   1.410       .  A
C539        H549   1.084       .  S
C540        C541   1.408       .  A
C541        H550   1.084       .  S
C542        C543   1.407       .  A
C542        H551   1.084   1_554  S
C543        C544   1.411       .  A
C544        H552   1.084       .  S
C553        C554   1.399       .  A
C553        C558   1.404       .  A
C553        H569   1.084       .  S
C554        C555   1.404       .  A
C554        H570   1.084       .  S
C555        C565   1.403       .  A
C555        C556   1.411       .  A
C556        C562   1.411       .  A
C556        C557   1.411       .  A
C557        C559   1.411       .  A
C557        C558   1.411       .  A
C558        C566   1.403       .  A
C559        C568   1.401       .  A
C559        C560   1.403       .  A
C560        C561   1.398       .  A
C560        H571   1.084       .  S
C561        C562   1.403       .  A
C561        H572   1.084       .  S
C562        C563   1.401       .  A
C563        C564   1.409       .  A
C563        H573   1.084       .  S
C564        C565   1.409       .  A
C565        H574   1.084       .  S
C566        C567   1.409       .  A
C566        H575   1.084       .  S
C567        C568   1.409       .  A
C568        H576   1.084       .  S
C577        C578   1.397       .  A
C577        C582   1.402   1_556  A
C577        H593   1.084       .  S
C578        C579   1.403   1_556  A
C578        H594   1.084       .  S
C579        C589   1.400       .  A
C579        C580   1.411       .  A
C580        C586   1.410       .  A
C580        C581   1.411       .  A
C581        C583   1.411       .  A
C581        C582   1.410       .  A
C582        C590   1.399       .  A
C583        C592   1.405       .  A
C583        C584   1.404       .  A
C584        C585   1.400       .  A
C584        H595   1.084       .  S
C585        C586   1.404       .  A
C585        H596   1.084       .  S
C586        C587   1.403       .  A
C587        C588   1.410       .  A
C587        H597   1.084       .  S
C588        C589   1.407       .  A
C589        H598   1.084   1_554  S
C590        C591   1.407       .  A
C590        H599   1.084   1_554  S
C591        C592   1.411       .  A
C592        H600   1.084       .  S
C601        C602   1.398       .  A
C601        C606   1.404       .  A
C601        H617   1.084       .  S
C602        C603   1.403       .  A
C602        H618   1.084       .  S
C603        C613   1.402       .  A
C603        C604   1.411       .  A
C604        C610   1.411   1_565  A
C604        C605   1.412       .  A
C605        C607   1.412   1_565  A
C605        C606   1.410       .  A
C606        C614   1.401       .  A
C607        C616   1.405       .  A
C607        C608   1.404       .  A
C608        C609   1.400       .  A
C608        H619   1.083       .  S
C609        C610   1.404       .  A
C609        H620   1.084       .  S
C610        C611   1.403       .  A
C611        C612   1.409   1_545  A
C611        H621   1.084       .  S
C612        C613   1.409       .  A
C613        H622   1.084       .  S
C614        C615   1.410       .  A
C614        H623   1.084       .  S
C615        C616   1.409   1_565  A
C616        H624   1.084       .  S
C625        C626   1.398       .  A
C625        C630   1.403       .  A
C625        H641   1.084       .  S
C626        C627   1.403       .  A
C626        H642   1.084       .  S
C627        C637   1.401       .  A
C627        C628   1.411       .  A
C628        C634   1.411   1_565  A
C628        C629   1.413       .  A
C629        C631   1.411       .  A
C629        C630   1.411       .  A
C630        C638   1.402       .  A
C631        C640   1.406       .  A
C631        C632   1.405   1_565  A
C632        C633   1.401       .  A
C632        H643   1.084       .  S
C633        C634   1.405       .  A
C633        H644   1.084       .  S
C634        C635   1.406       .  A
C635        C636   1.411   1_545  A
C635        H645   1.084       .  S
C636        C637   1.408       .  A
C637        H646   1.084       .  S
C638        C639   1.409       .  A
C638        H647   1.084       .  S
C639        C640   1.411       .  A
C640        H648   1.084   1_565  S
C649        C650   1.396       .  A
C649        C654   1.402       .  A
C649        H665   1.084       .  S
C650        C651   1.402       .  A
C650        H666   1.084       .  S
C651        C661   1.399       .  A
C651        C652   1.411       .  A
C652        C658   1.410       .  A
C652        C653   1.411       .  A
C653        C655   1.411       .  A
C653        C654   1.410       .  A
C654        C662   1.398       .  A
C655        C664   1.406       .  A
C655        C656   1.404       .  A
C656        C657   1.401       .  A
C656        H667   1.084       .  S
C657        C658   1.405       .  A
C657        H668   1.084       .  S
C658        C659   1.404       .  A
C659        C660   1.411       .  A
C659        H669   1.084       .  S
C660        C661   1.407       .  A
C661        H670   1.084       .  S
C662        C663   1.408       .  A
C662        H671   1.084       .  S
C663        C664   1.410       .  A
C664        H672   1.084       .  S
C673        C674   1.396       .  A
C673        C678   1.402       .  A
C673        H689   1.084       .  S
C674        C675   1.402       .  A
C674        H690   1.084       .  S
C675        C685   1.399       .  A
C675        C676   1.411       .  A
C676        C682   1.411       .  A
C676        C677   1.410       .  A
C677        C679   1.411       .  A
C677        C678   1.410       .  A
C678        C686   1.398       .  A
C679        C688   1.405       .  A
C679        C680   1.404       .  A
C680        C681   1.400       .  A
C680        H691   1.084       .  S
C681        C682   1.404       .  A
C681        H692   1.084       .  S
C682        C683   1.404       .  A
C683        C684   1.410       .  A
C683        H693   1.084       .  S
C684        C685   1.407       .  A
C685        H694   1.084       .  S
C686        C687   1.408   1_565  A
C686        H695   1.084   1_565  S
C687        C688   1.410   1_545  A
C688        H696   1.084       .  S
C697        C698   1.399       .  A
C697        C702   1.404       .  A
C697        H713   1.084       .  S
C698        C699   1.404       .  A
C698        H714   1.084       .  S
C699        C709   1.403       .  A
C699        C700   1.412   1_455  A
C700        C706   1.411       .  A
C700        C701   1.410       .  A
C701        C703   1.412       .  A
C701        C702   1.411   1_655  A
C702        C710   1.402       .  A
C703        C712   1.401       .  A
C703        C704   1.403       .  A
C704        C705   1.398       .  A
C704        H715   1.084       .  S
C705        C706   1.403       .  A
C705        H716   1.084       .  S
C706        C707   1.401       .  A
C707        C708   1.405       .  A
C707        H717   1.084       .  S
C708        C709   1.407   1_655  A
C709        H718   1.084       .  S
C710        C711   1.407   1_455  A
C710        H719   1.084       .  S
C711        C712   1.405       .  A
C712        H720   1.085       .  S
C721        C722   1.399       .  A
C721        C726   1.404       .  A
C721        H737   1.083       .  S
C722        C723   1.403       .  A
C722        H738   1.084       .  S
C723        C733   1.404       .  A
C723        C724   1.412       .  A
C724        C730   1.412   1_455  A
C724        C725   1.413       .  A
C725        C727   1.411   1_455  A
C725        C726   1.412       .  A
C726        C734   1.405       .  A
C727        C736   1.404       .  A
C727        C728   1.404       .  A
C728        C729   1.400       .  A
C728        H739   1.084       .  S
C729        C730   1.404       .  A
C729        H740   1.084       .  S
C730        C731   1.403       .  A
C731        C732   1.408       .  A
C731        H741   1.084       .  S
C732        C733   1.407   1_655  A
C733        H742   1.084       .  S
C734        C735   1.407       .  A
C734        H743   1.084       .  S
C735        C736   1.409   1_455  A
C736        H744   1.084       .  S
C745        C746   1.397       .  A
C745        C750   1.403       .  A
C745        H761   1.084       .  S
C746        C747   1.402       .  A
C746        H762   1.084       .  S
C747        C757   1.400       .  A
C747        C748   1.412   1_655  A
C748        C754   1.412       .  A
C748        C749   1.412       .  A
C749        C751   1.412       .  A
C749        C750   1.412   1_455  A
C750        C758   1.401       .  A
C751        C760   1.406       .  A
C751        C752   1.405       .  A
C752        C753   1.401       .  A
C752        H763   1.084       .  S
C753        C754   1.405       .  A
C753        H764   1.084       .  S
C754        C755   1.406       .  A
C755        C756   1.408       .  A
C755        H765   1.084       .  S
C756        C757   1.403   1_455  A
C757        H766   1.085       .  S
C758        C759   1.405   1_655  A
C758        H767   1.085       .  S
C759        C760   1.408       .  A
C760        H768   1.084       .  S
C769        C770   1.396       .  A
C769        C774   1.402       .  A
C769        H785   1.084       .  S
C770        C771   1.402       .  A
C770        H786   1.084       .  S
C771        C781   1.399       .  A
C771        C772   1.412   1_455  A
C772        C778   1.413       .  A
C772        C773   1.409       .  A
C773        C775   1.413       .  A
C773        C774   1.412   1_655  A
C774        C782   1.398       .  A
C775        C784   1.403       .  A
C775        C776   1.404       .  A
C776        C777   1.400       .  A
C776        H787   1.084       .  S
C777        C778   1.404       .  A
C777        H788   1.084       .  S
C778        C779   1.403       .  A
C779        C780   1.404       .  A
C779        H789   1.085       .  S
C780        C781   1.401   1_655  A
C781        H790   1.085       .  S
C782        C783   1.400   1_455  A
C782        H791   1.085       .  S
C783        C784   1.403       .  A
C784        H792   1.085       .  S
