geometry optimzed in LAMMPS
_audit_creation_date              2020-11-30 
_audit_creation_method            'lammps2cif' 
_symmetry_space_group_name_H-M    'P1' 
_symmetry_Int_Tables_number       1 
_symmetry_cell_setting            triclinic 
loop_ 
_symmetry_equiv_pos_as_xyz 
  x,y,z 
_cell_length_a                    32.62638977 
_cell_length_b                    32.699145342614244 
_cell_length_c                    78.53100645925052 
_cell_angle_alpha                 89.97251813782269 
_cell_angle_beta                  89.94699832551022 
_cell_angle_gamma                 120.07084402450856 
loop_ 
_atom_site_label 
_atom_site_type_symbol 
_atom_site_fract_x 
_atom_site_fract_y 
_atom_site_fract_z 
_atom_site_charge 
C1          C  0.08341538  0.49997570  0.54011247     0.02500
C2          C  0.12317991  0.49718111  0.54548150    -0.13600
C3          C  0.13701512  0.46815291  0.53690114     0.00000
C4          C  0.11126518  0.44272466  0.52263480    -0.12100
C5          C  0.07494777  0.44864935  0.51604484     0.02500
C6          C  0.05988624  0.47598539  0.52503611    -0.11600
H7          H  0.14359647  0.51786276  0.55629658     0.08100
H8          H  0.12043516  0.41916128  0.51616564     0.05700
H9          H  0.03091353  0.47956955  0.52002694     0.05500
C10         C  0.91086977  0.54251502  0.45119316     0.02500
C11         C  0.92673956  0.55952142  0.46780768    -0.13600
C12         C  0.90629688  0.58136010  0.47708620     0.00000
C13         C  0.87074416  0.58720382  0.46970797    -0.12100
C14         C  0.85552496  0.57191161  0.45308755     0.02500
C15         C  0.87466713  0.54848692  0.44396340    -0.11600
H16         H  0.95513355  0.55607254  0.47348326     0.08100
H17         H  0.85661908  0.60613979  0.47660980     0.05700
H18         H  0.86237598  0.53627952  0.43114974     0.05500
O19         O  0.96573673  0.63292218  0.60134539    -0.85900
O20         O  0.92435590  0.68216826  0.58892250    -0.83000
C21         C  0.92180412  0.71567722  0.58204330     0.97500
O22         O  0.94552819  0.73508588  0.56860070    -0.83000
O23         O  0.02834278  0.79755295  0.58376245    -0.85700
C24         C  0.06405024  0.81119276  0.59312066     1.02100
O25         O  0.08148209  0.78472361  0.59605905    -0.78400
O26         O  0.01940663  0.69993843  0.61168883    -0.78600
C27         C  0.98226466  0.66066194  0.61382603     1.02000
O28         O  0.98997856  0.62217583  0.56724512    -0.85900
O29         O  0.93595275  0.65798241  0.55468099    -0.83000
C30         C  0.96302792  0.67654242  0.54203609     0.97500
O31         O  0.00184162  0.71390091  0.54427299    -0.83000
O32         O  0.08365822  0.78264301  0.55952428    -0.85600
C33         C  0.11377307  0.76957922  0.56207604     1.02000
O34         O  0.10366099  0.73444807  0.57139866    -0.78400
O35         O  0.04675227  0.64907130  0.58644304    -0.78600
C36         C  0.02609363  0.62315828  0.57349962     1.02000
Cr37       Cr  0.95759597  0.65258129  0.57805284     1.93700
Cr38       Cr  0.01425175  0.75351094  0.56478872     1.93200
Cr39       Cr  0.05895061  0.71599402  0.59068195     1.39100
O40         O  0.01090825  0.70790366  0.57785428    -1.23700
C41         C  0.24404837  0.21530855  0.11645921     0.02500
C42         C  0.26344383  0.23188622  0.13272356    -0.13600
C43         C  0.25194024  0.26153670  0.14183816     0.00000
C44         C  0.22010261  0.27372271  0.13502545    -0.12100
C45         C  0.20081004  0.25825935  0.11883639     0.02500
C46         C  0.21276267  0.22894787  0.10950688    -0.11600
H47         H  0.28775920  0.22208010  0.13823992     0.08100
H48         H  0.21066053  0.29593190  0.14234410     0.05700
H49         H  0.19850670  0.21759076  0.09683479     0.05500
C50         C  0.40186153  0.14211357  0.20976042     0.02500
C51         C  0.38295058  0.12254783  0.19362645    -0.13600
C52         C  0.39699245  0.09351524  0.18528013     0.00000
C53         C  0.42889944  0.08314525  0.19325296    -0.12100
C54         C  0.44882042  0.10289398  0.20893602     0.02500
C55         C  0.43594635  0.13296706  0.21713291    -0.11600
H56         H  0.35828622  0.13072436  0.18741770     0.08100
H57         H  0.43969571  0.06061468  0.18687622     0.05700
H58         H  0.45250980  0.14925183  0.22911648     0.05500
O59         O  0.33519127  0.09072236  0.09103313    -0.85900
O60         O  0.38080055  0.04678599  0.10426100    -0.83000
C61         C  0.35222100  0.02391356  0.11608070     0.97500
O62         O  0.31363160  0.98733524  0.11259023    -0.83000
O63         O  0.23352692  0.92931226  0.09471284    -0.85700
C64         C  0.20634615  0.94616776  0.09307167     1.02100
O65         O  0.21968834  0.98449356  0.08514251    -0.78400
O66         O  0.28321416  0.07034885  0.07042091    -0.78600
C67         C  0.30379320  0.09541178  0.08339164     1.02000
O68         O  0.36403805  0.08106381  0.05741129    -0.85900
O69         O  0.39920486  0.02758220  0.07033961    -0.83000
C70         C  0.39864599  0.99169294  0.07647566     0.97500
O71         O  0.36900087  0.96751733  0.08799618    -0.83000
O72         O  0.28636254  0.91407353  0.06974052    -0.85600
C73         C  0.25007074  0.90476763  0.06110154     1.02000
O74         O  0.23707852  0.93506429  0.05961732    -0.78400
O75         O  0.30714071  0.01800271  0.04568807    -0.78600
C76         C  0.34711518  0.05485908  0.04452282     1.02000
Cr77       Cr  0.36580459  0.05768434  0.08068915     1.93700
Cr78       Cr  0.30180754  0.95380185  0.09051078     1.93200
Cr79       Cr  0.26567695  0.00274197  0.06605140     1.39100
O80         O  0.31068105  0.00442134  0.07916156    -1.23700
O81         O  0.29847738  0.29391076  0.26790138    -0.85900
O82         O  0.26666695  0.35021745  0.25485364    -0.83000
C83         C  0.26890872  0.38642705  0.24821681     0.97500
O84         O  0.29555866  0.40549941  0.23536910    -0.83000
O85         O  0.37834781  0.45832371  0.25225128    -0.85700
C86         C  0.41331999  0.46734932  0.26147655     1.02100
O87         O  0.42760724  0.43803530  0.26321943    -0.78400
O88         O  0.35847639  0.35729954  0.27823010    -0.78600
C89         C  0.31897520  0.32072485  0.28040439     1.02000
O90         O  0.32263970  0.27977148  0.23387073    -0.85900
O91         O  0.27892893  0.32553419  0.22082283    -0.83000
C92         C  0.30801860  0.34229497  0.20866438     0.97500
O93         O  0.34762795  0.37876129  0.21114814    -0.83000
O94         O  0.43093336  0.43947763  0.22764640    -0.85600
C95         C  0.45616363  0.42040955  0.22967703     1.02000
O96         O  0.44144250  0.38321062  0.23832682    -0.78400
O97         O  0.37696049  0.29996335  0.25365669    -0.78600
C98         C  0.35530489  0.27549180  0.24063676     1.02000
Cr99       Cr  0.29553493  0.31580893  0.24437722     1.93700
Cr100      Cr  0.36206085  0.41667655  0.23230819     1.93200
Cr101      Cr  0.39742383  0.36901379  0.25757409     1.39100
O102        O  0.35217688  0.36748469  0.24473276    -1.23700
C103        C  0.17720546  0.25718258  0.37009169     0.02500
C104        C  0.18443444  0.22143678  0.37685457    -0.13600
C105        C  0.21150859  0.20581403  0.36799868     0.00000
C106        C  0.23265840  0.22745141  0.35257060    -0.12100
C107        C  0.22514117  0.26227695  0.34544562     0.02500
C108        C  0.19741995  0.27723216  0.35419026    -0.11600
H109        H  0.16984321  0.20651140  0.38921570     0.08100
H110        H  0.25574400  0.21758602  0.34607644     0.05700
H111        H  0.19227899  0.30483628  0.34877570     0.05500
C112        C  0.16516270  0.46037176  0.28522472     0.02500
C113        C  0.15232442  0.49141494  0.27761809    -0.13600
C114        C  0.12747444  0.50866434  0.28695683     0.00000
C115        C  0.11642653  0.49582040  0.30405107    -0.12100
C116        C  0.12922966  0.46548824  0.31193243     0.02500
C117        C  0.15402302  0.44816884  0.30254337    -0.11600
H118        H  0.15981580  0.50052305  0.26426780     0.08100
H119        H  0.09609484  0.50815314  0.31109269     0.05700
H120        H  0.16403010  0.42474934  0.30866573     0.05500
O121        O  0.01978814  0.43443970  0.42400260    -0.85900
O122        O  0.06333386  0.38869830  0.43712662    -0.83000
C123        C  0.03228939  0.36741493  0.44850702     0.97500
O124        O  0.99382833  0.33143225  0.44445616    -0.83000
O125        O  0.91494144  0.27469976  0.42546332    -0.85700
C126        C  0.88888745  0.29297648  0.42366584     1.02100
O127        O  0.90424357  0.33168094  0.41591345    -0.78400
O128        O  0.97029732  0.41757137  0.40274213    -0.78600
C129        C  0.98733172  0.43826555  0.41682871     1.02000
O130        O  0.05134910  0.42803757  0.39013925    -0.85900
O131        O  0.08313346  0.37163186  0.40284453    -0.83000
C132        C  0.08039315  0.33446862  0.40869224     0.97500
O133        O  0.05134666  0.31187207  0.42059632    -0.83000
O134        O  0.97213324  0.26123003  0.40126349    -0.85600
C135        C  0.93780430  0.25254134  0.39164630     1.02000
O136        O  0.92342230  0.28192760  0.39054854    -0.78400
O137        O  0.99480818  0.36598654  0.37774552    -0.78600
C138        C  0.03476751  0.40287332  0.37694525     1.02000
Cr139      Cr  0.05074650  0.40235149  0.41338464     1.93700
Cr140      Cr  0.98415737  0.29871851  0.42230732     1.93200
Cr141      Cr  0.95177134  0.34985048  0.39755936     1.39100
O142        O  0.99514070  0.35001805  0.41111899    -1.23700
C143        C  0.50827905  0.92554552  0.03981871     0.02500
C144        C  0.52029547  0.89248817  0.04613152    -0.13600
C145        C  0.54575732  0.87751091  0.03593963     0.00000
C146        C  0.56045661  0.89690588  0.01970288    -0.12100
C147        C  0.55075636  0.93114495  0.01358165     0.02500
C148        C  0.52387423  0.94486337  0.02343523    -0.11600
H149        H  0.51058429  0.87908595  0.05900013     0.08100
H150        H  0.58073577  0.88608287  0.01185828     0.05700
H151        H  0.51578547  0.97094511  0.01847143     0.05500
C152        C  0.48162058  0.11507195  0.95322221     0.02500
C153        C  0.46844419  0.14643831  0.94601259    -0.13600
C154        C  0.44265958  0.16231868  0.95564560     0.00000
C155        C  0.43037999  0.14682420  0.97243724    -0.12100
C156        C  0.44260039  0.11551366  0.97978803     0.02500
C157        C  0.46769666  0.09909026  0.97009281    -0.11600
H158        H  0.47735001  0.15760109  0.93289108     0.08100
H159        H  0.41008890  0.15859298  0.97981687     0.05700
H160        H  0.47687874  0.07447244  0.97572292     0.05500
O161        O  0.62650186  0.95829988  0.93583302    -0.85900
O162        O  0.58824833  0.00934036  0.92272529    -0.83000
C163        C  0.58777480  0.04420193  0.91604878     0.97500
O164        O  0.61472384  0.06546404  0.90341805    -0.83000
O165        O  0.69649001  0.12265376  0.91994243    -0.85700
C166        C  0.73210137  0.13413656  0.92911485     1.02100
O167        O  0.74813243  0.10649701  0.93144190    -0.78400
O168        O  0.68083030  0.02417705  0.94664943    -0.78600
C169        C  0.64247689  0.98577522  0.94837542     1.02000
O170        O  0.65307343  0.94674100  0.90229221    -0.85900
O171        O  0.60379324  0.98667147  0.88888728    -0.83000
C172        C  0.63282566  0.00471676  0.87675058     0.97500
O173        O  0.67079283  0.04283085  0.87924746    -0.83000
O174        O  0.75239925  0.10696955  0.89573113    -0.85600
C175        C  0.77982883  0.09055007  0.89823589     1.02000
O176        O  0.76697669  0.05416074  0.90719844    -0.78400
O177        O  0.70590526  0.97030643  0.92271288    -0.78600
C178        C  0.68670121  0.94511805  0.90959215     1.02000
Cr179      Cr  0.62145934  0.97885202  0.91244479     1.93700
Cr180      Cr  0.68272508  0.08068025  0.90029151     1.93200
Cr181      Cr  0.72179247  0.03796617  0.92624507     1.39100
O182        O  0.67585890  0.03293480  0.91294084    -1.23700
C183        C  0.84601499  0.60378745  0.70511014     0.02500
C184        C  0.86390121  0.62152214  0.68865704    -0.13600
C185        C  0.89218631  0.60682415  0.68002648     0.00000
C186        C  0.90060372  0.57297506  0.68746301    -0.12100
C187        C  0.88211394  0.55423211  0.70346085     0.02500
C188        C  0.85511711  0.56970064  0.71231898    -0.11600
H189        H  0.85686539  0.64736002  0.68278842     0.08100
H190        H  0.92279181  0.56197643  0.68092695     0.05700
H191        H  0.84264435  0.55641319  0.72504822     0.05500
C192        C  0.80025820  0.77660470  0.61378412     0.02500
C193        C  0.77555080  0.75447721  0.62885171    -0.13600
C194        C  0.74778586  0.77018975  0.63709565     0.00000
C195        C  0.74272470  0.80633939  0.62971062    -0.12100
C196        C  0.77088416  0.83242264  0.61579493     0.02500
C197        C  0.79943791  0.81683992  0.60783498    -0.11600
H198        H  0.77852598  0.72567374  0.63433747     0.08100
H199        H  0.71851895  0.81573149  0.63552929     0.05700
H200        H  0.82189444  0.83633536  0.59719514     0.05500
C201        C  0.57661019  0.88218577  0.78352957     0.02500
C202        C  0.59351711  0.89583986  0.80028704    -0.13600
C203        C  0.57747971  0.92078740  0.81021950     0.00000
C204        C  0.54612850  0.93343833  0.80319668    -0.12100
C205        C  0.53002876  0.92104179  0.78654369     0.02500
C206        C  0.54483846  0.89509600  0.77672148    -0.11600
H207        H  0.61817382  0.88631574  0.80566018     0.08100
H208        H  0.53459288  0.95370528  0.81069462     0.05700
H209        H  0.53258781  0.88597942  0.76370769     0.05500
C210        C  0.75093902  0.83312352  0.87333966     0.02500
C211        C  0.73721782  0.82235743  0.85612001    -0.13600
C212        C  0.75453892  0.79859564  0.84612428     0.00000
C213        C  0.78674235  0.78709724  0.85321086    -0.12100
C214        C  0.80099108  0.79789144  0.87015159     0.02500
C215        C  0.78333983  0.82101413  0.88019060    -0.11600
H216        H  0.71304565  0.83220416  0.85051388     0.08100
H217        H  0.79973252  0.76821235  0.84564034     0.05700
H218        H  0.79382809  0.82835463  0.89342796     0.05500
O219        O  0.73150254  0.70149810  0.73230925    -0.85900
O220        O  0.69575771  0.75244382  0.71733012    -0.83000
C221        C  0.67225054  0.72335807  0.70567736     0.97500
O222        O  0.63426003  0.68621802  0.70933770    -0.83000
O223        O  0.56805740  0.60901019  0.72781877    -0.85700
C224        C  0.58256706  0.58028322  0.73082196     1.02100
O225        O  0.61918394  0.59242092  0.73947384    -0.78400
O226        O  0.70552339  0.65013975  0.75329095    -0.78600
C227        C  0.73132019  0.66770400  0.74011180     1.02000
O228        O  0.72452298  0.73565414  0.76538920    -0.85900
O229        O  0.67718549  0.77540942  0.75093623    -0.83000
C230        C  0.64268190  0.77680026  0.74443276     0.97500
O231        O  0.61971838  0.74921073  0.73222150    -0.83000
O232        O  0.55971021  0.67238679  0.75072424    -0.85600
C233        C  0.54654060  0.63835073  0.76083730     1.02000
O234        O  0.57215782  0.62003972  0.76358042    -0.78400
O235        O  0.65809776  0.68386175  0.77696151    -0.78600
C236        C  0.69829617  0.72005251  0.77838631     1.02000
Cr237      Cr  0.70323551  0.73755730  0.74156493     1.93700
Cr238      Cr  0.59930152  0.67981139  0.73076723     1.93200
Cr239      Cr  0.63970911  0.64035130  0.75742550     1.39100
O240        O  0.64708489  0.68543256  0.74319205    -1.23700
C241        C  0.27757605  0.46132257  0.78539220     0.02500
C242        C  0.31917926  0.50281051  0.78063696    -0.13600
C243        C  0.36254501  0.51652103  0.78888809     0.00000
C244        C  0.36331605  0.48873827  0.80239246    -0.12100
C245        C  0.32196695  0.44808817  0.80770130     0.02500
C246        C  0.27956496  0.43385801  0.79880455    -0.11600
H247        H  0.31780663  0.52421972  0.77036221     0.08100
H248        H  0.39624832  0.49861977  0.80883401     0.05700
H249        H  0.24788261  0.40157326  0.80250925     0.05500
C250        C  0.05094304  0.26690591  0.87179842     0.02500
C251        C  0.05055242  0.28851117  0.85627248    -0.13600
C252        C  0.00726040  0.27520972  0.84799238     0.00000
C253        C  0.96482072  0.24144383  0.85569709    -0.12100
C254        C  0.96464690  0.21727271  0.87043383     0.02500
C255        C  0.00797173  0.23080548  0.87857269    -0.11600
H256        H  0.08369706  0.31437048  0.85048175     0.08100
H257        H  0.93145925  0.23312437  0.84984184     0.05700
H258        H  0.00846051  0.21308133  0.89016536     0.05500
O259        O  0.93788635  0.29488786  0.73352046    -0.85900
O260        O  0.02733433  0.33699635  0.72037798    -0.83000
C261        C  0.02078231  0.35914159  0.70842941     0.97500
O262        O  0.02143128  0.39715063  0.71171027    -0.83000
O263        O  0.00242445  0.45872335  0.72906407    -0.85700
C264        C  0.95817884  0.44212035  0.73019741     1.02100
O265        O  0.93236334  0.40321269  0.73761710    -0.78400
O266        O  0.90614915  0.31785254  0.75313819    -0.78600
C267        C  0.90162235  0.29238230  0.74029924     1.02000
O268        O  0.97519867  0.30594529  0.76767010    -0.85900
O269        O  0.06418324  0.35776065  0.75500688    -0.83000
C270        C  0.10020782  0.39329970  0.74898684     0.97500
O271        O  0.09605035  0.41537404  0.73643787    -0.83000
O272        O  0.06924505  0.47043244  0.75455355    -0.85600
C273        C  0.04312078  0.48054483  0.76336168     1.02000
O274        O  0.99882876  0.45298161  0.76354545    -0.78400
O275        O  0.98068750  0.36988201  0.77847376    -0.78600
C276        C  0.98052182  0.33160311  0.78047445     1.02000
Cr277      Cr  0.00124889  0.32769002  0.74416094     1.93700
Cr278      Cr  0.04420814  0.43142807  0.73363317     1.93200
Cr279      Cr  0.95757936  0.38521651  0.75737936     1.39100
O280        O  0.00086507  0.38161325  0.74499935    -1.23700
O281        O  0.30858734  0.38161969  0.88636999    -0.85900
O282        O  0.25338955  0.35625764  0.91418510    -0.83000
C283        C  0.22210035  0.31431420  0.91028452     0.97500
O284        O  0.23017669  0.28098819  0.91295183    -0.83000
O285        O  0.27817541  0.23340804  0.90963619    -0.85700
C286        C  0.28548389  0.23204404  0.89392650     1.02100
O287        O  0.31004226  0.26958919  0.88556500    -0.78400
O288        O  0.36229694  0.36526950  0.87781268    -0.78600
C289        C  0.33222467  0.37792463  0.87451210     1.02000
O290        O  0.39461164  0.42803520  0.90682783    -0.85900
O291        O  0.34054680  0.39740436  0.93489372    -0.83000
C292        C  0.31704285  0.36957486  0.94668188     0.97500
O293        O  0.28512645  0.32786662  0.94319383    -0.83000
O294        O  0.33943547  0.28589568  0.93664503    -0.85600
C295        C  0.36606762  0.27467132  0.92869044     1.02000
O296        O  0.37291319  0.28211649  0.91286416    -0.78400
O297        O  0.41860976  0.37660218  0.90812710    -0.78600
C298        C  0.42677043  0.41814820  0.91007822     1.02000
Cr299      Cr  0.32419777  0.38659101  0.91062298     1.93700
Cr300      Cr  0.28594960  0.28599212  0.92462746     1.93200
Cr301      Cr  0.36307671  0.32447935  0.89703229     1.39100
O302        O  0.32441906  0.33234321  0.91072410    -1.23700
C303        C  0.38478795  0.48070490  0.04173694     0.02500
C304        C  0.33970624  0.46912604  0.04805849    -0.13600
C305        C  0.29905949  0.44356250  0.03796738     0.00000
C306        C  0.30388838  0.43050140  0.02148767    -0.12100
C307        C  0.34796482  0.44043702  0.01522830     0.02500
C308        C  0.38845195  0.46485337  0.02543928    -0.11600
H309        H  0.33641922  0.48051700  0.06067246     0.08100
H310        H  0.27291213  0.41230835  0.01339608     0.05700
H311        H  0.42282743  0.47342258  0.02041340     0.05500
C312        C  0.60169651  0.54931044  0.94504907     0.02500
C313        C  0.64590237  0.56172131  0.93765112    -0.13600
C314        C  0.68804858  0.58872017  0.94668967     0.00000
C315        C  0.68665003  0.60474066  0.96301514    -0.12100
C316        C  0.64345477  0.59285521  0.97072735     0.02500
C317        C  0.60088889  0.56436205  0.96186529    -0.11600
H318        H  0.64775323  0.55068590  0.92480805     0.08100
H319        H  0.71946849  0.62605829  0.96987657     0.05700
H320        H  0.56744477  0.55386767  0.96810876     0.05500
O321        O  0.59309794  0.60302610  0.07972583    -0.85900
O322        O  0.64502151  0.63728965  0.05125247    -0.83000
C323        C  0.66782580  0.66592768  0.03954730     0.97500
O324        O  0.69821994  0.70805493  0.04332173    -0.83000
O325        O  0.64050776  0.74546592  0.05131408    -0.85700
C326        C  0.61420716  0.75595488  0.05981861     1.02100
O327        O  0.60741444  0.74670430  0.07555589    -0.78400
O328        O  0.56523473  0.65137453  0.07940251    -0.78600
C329        C  0.55928329  0.61069758  0.07689488     1.02000
O330        O  0.68035139  0.65249835  0.09956545    -0.85900
O331        O  0.73343685  0.68079850  0.07122729    -0.83000
C332        C  0.76298349  0.72285415  0.07564415     0.97500
O333        O  0.75242162  0.75458052  0.07379285    -0.83000
O334        O  0.70188670  0.79809420  0.07830258    -0.85600
C335        C  0.69589913  0.79853680  0.09415877     1.02000
O336        O  0.67156133  0.76044368  0.10233899    -0.78400
O337        O  0.62327380  0.66301160  0.10888602    -0.78600
C338        C  0.65476707  0.65189024  0.11158223     1.02000
Cr339      Cr  0.66276477  0.64739904  0.07547328     1.93700
Cr340      Cr  0.69565524  0.74754877  0.06258064     1.93200
Cr341      Cr  0.61980007  0.70452585  0.09055536     1.39100
O342        O  0.65931689  0.69983823  0.07623968    -1.23700
C343        C  0.72713956  0.17513712  0.70315987     0.02500
C344        C  0.68174107  0.16115784  0.70976340    -0.13600
C345        C  0.64131362  0.13710274  0.69946251     0.00000
C346        C  0.64626978  0.12656044  0.68265038    -0.12100
C347        C  0.69079939  0.14030919  0.67579111     0.02500
C348        C  0.73132695  0.16492237  0.68598334    -0.11600
H349        H  0.67775343  0.16829378  0.72295249     0.08100
H350        H  0.61498269  0.10704998  0.67482122     0.05700
H351        H  0.76587688  0.17618495  0.68052456     0.05500
C352        C  0.94801553  0.22970169  0.61595437     0.02500
C353        C  0.99117066  0.23693980  0.60924674    -0.13600
C354        C  0.03385209  0.26462209  0.61797439     0.00000
C355        C  0.03350430  0.28437573  0.63371049    -0.12100
C356        C  0.99118310  0.27746996  0.64077496     0.02500
C357        C  0.94851243  0.25096637  0.63173515    -0.11600
H358        H  0.99168548  0.22081744  0.59725533     0.08100
H359        H  0.06647468  0.30526643  0.64054701     0.05700
H360        H  0.91596037  0.24667458  0.63705521     0.05500
C361        C  0.39144257  0.93789488  0.53963658     0.02500
C362        C  0.39134446  0.95321781  0.52278513    -0.13600
C363        C  0.34839866  0.93857000  0.51419326     0.00000
C364        C  0.30572700  0.90831989  0.52235403    -0.12100
C365        C  0.30503759  0.89335879  0.53903517     0.02500
C366        C  0.34773324  0.90834072  0.54775163    -0.11600
H367        H  0.42446924  0.97628803  0.51635278     0.08100
H368        H  0.27253382  0.89694151  0.51575289     0.05700
H369        H  0.34678708  0.89775776  0.56087756     0.05500
C370        C  0.61225114  0.12862091  0.44795189     0.02500
C371        C  0.61412040  0.11121129  0.46424813    -0.13600
C372        C  0.65754839  0.12865983  0.47278809     0.00000
C373        C  0.69927391  0.16106287  0.46454484    -0.12100
C374        C  0.69825715  0.17691269  0.44812311     0.02500
C375        C  0.65483395  0.16170272  0.43997959    -0.11600
H376        H  0.58195042  0.08456985  0.47034947     0.08100
H377        H  0.73308589  0.17308180  0.47077984     0.05700
H378        H  0.65438803  0.17456132  0.42730492     0.05500
O379        O  0.69860024  0.09724870  0.55122178    -0.85900
O380        O  0.60965399  0.04161697  0.56440810    -0.83000
C381        C  0.57506924  0.00753690  0.57178357     0.97500
O382        O  0.58230731  0.98638156  0.58404966    -0.83000
O383        O  0.61116862  0.93131546  0.56745902    -0.85700
C384        C  0.63691008  0.92178997  0.55823442     1.02100
O385        O  0.68026305  0.95221781  0.55588746    -0.78400
O386        O  0.69361143  0.03373347  0.54056929    -0.78600
C387        C  0.69097630  0.07051928  0.53859996     1.02000
O388        O  0.73603212  0.11054813  0.58511857    -0.85900
O389        O  0.64706188  0.06624126  0.59818269    -0.83000
C390        C  0.66046326  0.05055070  0.61033930     0.97500
O391        O  0.66213992  0.01339082  0.60803340    -0.83000
O392        O  0.68318852  0.95177115  0.59183012    -0.85600
C393        C  0.72737611  0.96992209  0.58952278     1.02000
O394        O  0.75007951  0.00652313  0.58055954    -0.78400
O395        O  0.77017827  0.09013748  0.56541176    -0.78600
C396        C  0.77297470  0.11443087  0.57850359     1.02000
Cr397      Cr  0.67313173  0.07536486  0.57465419     1.93700
Cr398      Cr  0.63748072  0.97463612  0.58706132     1.93200
Cr399      Cr  0.72037310  0.02124873  0.56136135     1.39100
O400        O  0.67699631  0.02324810  0.57430263    -1.23700
O401        O  0.26987716  0.94974169  0.40067466    -0.85900
O402        O  0.35855309  0.99220823  0.38658434    -0.83000
C403        C  0.34813079  0.01072804  0.37447660     0.97500
O404        O  0.34572189  0.04734106  0.37722028    -0.83000
O405        O  0.32767627  0.11061794  0.39377023    -0.85700
C406        C  0.28349939  0.09232750  0.39614513     1.02100
O407        O  0.26089442  0.05593639  0.40514255    -0.78400
O408        O  0.23939267  0.97346731  0.42069529    -0.78600
C409        C  0.23417709  0.94723302  0.40792080     1.02000
O410        O  0.30984409  0.96381412  0.43413047    -0.85900
O411        O  0.39765741  0.01721274  0.42042764    -0.83000
C412        C  0.43200109  0.05217494  0.41337861     0.97500
O413        O  0.42538761  0.07133925  0.40039031    -0.83000
O414        O  0.40097303  0.12850687  0.41742758    -0.85600
C415        C  0.37673951  0.13982475  0.42663053     1.02000
O416        O  0.33309002  0.11122618  0.42926105    -0.78400
O417        O  0.31795157  0.02877458  0.44477064    -0.78600
C418        C  0.31725683  0.99023265  0.44683118     1.02000
Cr419      Cr  0.33396601  0.98437768  0.41045321     1.93700
Cr420      Cr  0.37205193  0.08563651  0.39797767     1.93200
Cr421      Cr  0.29088865  0.04176084  0.42420990     1.39100
O422        O  0.33215109  0.03758641  0.41086957    -1.23700
C423        C  0.05849524  0.83790484  0.37065771     0.02500
C424        C  0.06059258  0.82122874  0.35424161    -0.13600
C425        C  0.01915675  0.79641554  0.34441398     0.00000
C426        C  0.97586839  0.78769236  0.35107877    -0.12100
C427        C  0.97288828  0.80214383  0.36752540     0.02500
C428        C  0.01409714  0.82739615  0.37728691    -0.11600
H429        H  0.09422728  0.82804241  0.34905991     0.08100
H430        H  0.94384206  0.76786155  0.34362721     0.05700
H431        H  0.01145906  0.83786654  0.39014848     0.05500
C432        C  0.28189080  0.89311062  0.28068684     0.02500
C433        C  0.28017427  0.91234610  0.29660360    -0.13600
C434        C  0.32127973  0.93761688  0.30634090     0.00000
C435        C  0.36431192  0.94478869  0.30019257    -0.12100
C436        C  0.36737181  0.92791597  0.28421168     0.02500
C437        C  0.32593304  0.90060030  0.27469592    -0.11600
H438        H  0.24687196  0.90710776  0.30157067     0.08100
H439        H  0.39584748  0.96388756  0.30794296     0.05700
H440        H  0.32809730  0.88524347  0.26275498     0.05500
C441        C  0.93188812  0.77047175  0.11539732     0.02500
C442        C  0.93183733  0.75410414  0.13215586    -0.13600
C443        C  0.97510256  0.77037176  0.14098988     0.00000
C444        C  0.01749258  0.80302438  0.13305282    -0.12100
C445        C  0.01765715  0.81974542  0.11674723     0.02500
C446        C  0.97528362  0.80344172  0.10793582    -0.11600
H447        H  0.89873995  0.72963540  0.13829723     0.08100
H448        H  0.05095170  0.81538209  0.13959559     0.05700
H449        H  0.97629219  0.81599624  0.09507574     0.05500
C450        C  0.72723228  0.59192021  0.20234429     0.02500
C451        C  0.68478148  0.55430743  0.20896139    -0.13600
C452        C  0.64085411  0.54053289  0.20114159     0.00000
C453        C  0.63986626  0.56511527  0.18667892    -0.12100
C454        C  0.68165521  0.60083462  0.17944687     0.02500
C455        C  0.72512388  0.61493334  0.18746289    -0.11600
H456        H  0.68597561  0.53571217  0.22020278     0.08100
H457        H  0.60639661  0.55599210  0.18075927     0.05700
H458        H  0.75709537  0.64399298  0.18211802     0.05500
O459        O  0.03163275  0.75253344  0.21967315    -0.85900
O460        O  0.94186504  0.69919141  0.23170199    -0.83000
C461        C  0.90638142  0.66365146  0.23799805     0.97500
O462        O  0.91103253  0.64291449  0.25093937    -0.83000
O463        O  0.93968559  0.58644296  0.23535406    -0.85700
C464        C  0.96562603  0.57561516  0.22684904     1.02100
O465        O  0.00917794  0.60535052  0.22474494    -0.78400
O466        O  0.02324331  0.68760131  0.20910922    -0.78600
C467        C  0.02238847  0.72543717  0.20707712     1.02000
O468        O  0.06659730  0.76472148  0.25386891    -0.85900
O469        O  0.97611771  0.72310260  0.26625158    -0.83000
C470        C  0.98518395  0.70451135  0.27872353     0.97500
O471        O  0.98697950  0.66750445  0.27622894    -0.83000
O472        O  0.00891586  0.60604266  0.26074409    -0.85600
C473        C  0.05310861  0.62256872  0.25896707     1.02000
O474        O  0.07723100  0.65841015  0.24969379    -0.78400
O475        O  0.09977915  0.74293051  0.23421336    -0.78600
C476        C  0.10314553  0.76730098  0.24734350     1.02000
Cr477      Cr  0.00414864  0.73121106  0.24288367     1.93700
Cr478      Cr  0.96457427  0.62961610  0.25505806     1.93200
Cr479      Cr  0.04928797  0.67442202  0.23013587     1.39100
O480        O  0.00618009  0.67798290  0.24276936    -1.23700
C481        C  0.14124922  0.75635955  0.78235559     0.02500
C482        C  0.12793520  0.71068062  0.77614999    -0.13600
C483        C  0.10673425  0.67089231  0.78690522     0.00000
C484        C  0.09585874  0.67656315  0.80361242    -0.12100
C485        C  0.10489750  0.72023901  0.80971260     0.02500
C486        C  0.12961310  0.76071112  0.79941974    -0.11600
H487        H  0.13430303  0.70608676  0.76294574     0.08100
H488        H  0.07920368  0.64625829  0.81206628     0.05700
H489        H  0.13963048  0.79498419  0.80471456     0.05500
C490        C  0.19979373  0.96049048  0.87277907     0.02500
C491        C  0.20592784  0.00315402  0.87957327    -0.13600
C492        C  0.23021129  0.04528626  0.87017712     0.00000
C493        C  0.24697066  0.04436149  0.85393077    -0.12100
C494        C  0.24226233  0.00291372  0.84710332     0.02500
C495        C  0.21905375  0.96095780  0.85661147    -0.11600
H496        H  0.19162113  0.00354346  0.89197790     0.08100
H497        H  0.26448071  0.07674746  0.84653078     0.05700
H498        H  0.21523543  0.92862772  0.85133331     0.05500
O499        O  0.25657353  0.95712531  0.73902214    -0.85900
O500        O  0.28795115  0.01220307  0.76678074    -0.83000
C501        C  0.31597120  0.03662158  0.77838599     0.97500
O502        O  0.35743403  0.06856216  0.77454568    -0.83000
O503        O  0.39948240  0.01485090  0.76876124    -0.85700
C504        C  0.40985046  0.98724761  0.76118528     1.02100
O505        O  0.40257253  0.97928327  0.74543022    -0.78400
O506        O  0.30775959  0.93292527  0.74124778    -0.78600
C507        C  0.26614580  0.92515268  0.74295595     1.02000
O508        O  0.30438586  0.04285674  0.71806449    -0.85900
O509        O  0.32836375  0.09835586  0.74585418    -0.83000
C510        C  0.37032004  0.13015325  0.74213248     0.97500
O511        O  0.40375991  0.12184406  0.74410995    -0.83000
O512        O  0.45154958  0.07404857  0.74103291    -0.85600
C513        C  0.45239416  0.06585887  0.72536616     1.02000
O514        O  0.41465484  0.03916866  0.71738414    -0.78400
O515        O  0.31834092  0.98689085  0.71029921    -0.78600
C516        C  0.30768367  0.01807883  0.70651505     1.02000
Cr517      Cr  0.29837189  0.02768153  0.74244143     1.93700
Cr518      Cr  0.39919297  0.06694578  0.75613169     1.93200
Cr519      Cr  0.35979322  0.98746799  0.72947740     1.39100
O520        O  0.35257478  0.02743658  0.74262195    -1.23700
C521        C  0.76826274  0.97530589  0.37384225     0.02500
C522        C  0.74746355  0.96974474  0.35764830    -0.13600
C523        C  0.76272719  0.00845130  0.34665030     0.00000
C524        C  0.79971348  0.05254559  0.35162254    -0.12100
C525        C  0.81949995  0.05986577  0.36791094     0.02500
C526        C  0.80336023  0.02102134  0.37910649    -0.11600
H527        H  0.71919127  0.93541607  0.35362968     0.08100
H528        H  0.81184339  0.08211278  0.34288657     0.05700
H529        H  0.81722883  0.02647117  0.39193798     0.05500
C530        C  0.57746349  0.74244117  0.28367317     0.02500
C531        C  0.54780209  0.69723053  0.27674418    -0.13600
C532        C  0.53236665  0.65635374  0.28668710     0.00000
C533        C  0.54672438  0.66079900  0.30365251    -0.12100
C534        C  0.57589617  0.70517425  0.31091623     0.02500
C535        C  0.59204354  0.74608492  0.30080923    -0.11600
H536        H  0.53660497  0.69385366  0.26359831     0.08100
H537        H  0.53567171  0.62924242  0.31124955     0.05700
H538        H  0.61492396  0.78053301  0.30635527     0.05500
C539        C  0.07011914  0.62947714  0.04001664     0.02500
C540        C  0.05538927  0.62939049  0.02307831    -0.13600
C541        C  0.07111301  0.67228838  0.01426272     0.00000
C542        C  0.09964521  0.71495150  0.02268694    -0.12100
C543        C  0.11506859  0.71567855  0.03929685     0.02500
C544        C  0.10031560  0.67300622  0.04800260    -0.11600
H545        H  0.03312936  0.59616131  0.01664410     0.08100
H546        H  0.11126673  0.74807531  0.01604638     0.05700
H547        H  0.11292112  0.67365016  0.06081351     0.05500
C548        C  0.90619282  0.40791993  0.94932198     0.02500
C549        C  0.87250176  0.36381424  0.94264099    -0.13600
C550        C  0.85894302  0.32224536  0.95189673     0.00000
C551        C  0.87966613  0.32463858  0.96765957    -0.12100
C552        C  0.91377252  0.36803646  0.97430597     0.02500
C553        C  0.92676843  0.40977999  0.96526046    -0.11600
H554        H  0.85700403  0.36176569  0.93025366     0.08100
H555        H  0.86932906  0.29247097  0.97479311     0.05700
H556        H  0.95262406  0.44349865  0.97062950     0.05500
C557        C  0.80262334  0.07511172  0.11299790     0.02500
C558        C  0.78963977  0.02958936  0.10674099    -0.13600
C559        C  0.76519429  0.98941612  0.11725987     0.00000
C560        C  0.75374847  0.99503210  0.13388878    -0.12100
C561        C  0.76500615  0.03933039  0.14011325     0.02500
C562        C  0.78895170  0.07936851  0.12965387    -0.11600
H563        H  0.79849493  0.02549703  0.09380242     0.08100
H564        H  0.73514518  0.96431792  0.14207690     0.05700
H565        H  0.79796542  0.11379084  0.13462460     0.05500
C566        C  0.86088559  0.29591142  0.20932065     0.02500
C567        C  0.87521600  0.29490334  0.19235954    -0.13600
C568        C  0.90255465  0.33725479  0.18320113     0.00000
C569        C  0.91417017  0.38029908  0.19080552    -0.12100
C570        C  0.89973160  0.38222720  0.20733350     0.02500
C571        C  0.87316812  0.34020835  0.21660979    -0.11600
H572        H  0.86534252  0.26147193  0.18631061     0.08100
H573        H  0.93490303  0.41293267  0.18376031     0.05700
H574        H  0.86294015  0.34217979  0.22957209     0.05500
O575        O  0.91582510  0.28555947  0.07468612    -0.85900
O576        O  0.94805836  0.34059757  0.10275369    -0.83000
C577        C  0.97597304  0.36635413  0.11415868     0.97500
O578        O  0.01749028  0.39824569  0.11007995    -0.83000
O579        O  0.06250034  0.34634056  0.10371127    -0.85700
C580        C  0.07242491  0.31856040  0.09588429     1.02100
O581        O  0.06278893  0.30935980  0.08027836    -0.78400
O582        O  0.96764638  0.26223815  0.07628987    -0.78600
C583        C  0.92576681  0.25364947  0.07822755     1.02000
O584        O  0.96243332  0.37204305  0.05426214    -0.85900
O585        O  0.98633137  0.42681718  0.08202474    -0.83000
C586        C  0.02720774  0.45794587  0.07696043     0.97500
O587        O  0.06153954  0.45092754  0.07868398    -0.83000
O588        O  0.11127254  0.40499623  0.07575554    -0.85600
C589        C  0.11194724  0.39572785  0.06018990     1.02000
O590        O  0.07392759  0.36908034  0.05231707    -0.78400
O591        O  0.97688266  0.31691148  0.04580491    -0.78600
C592        C  0.96410330  0.34689123  0.04259032     1.02000
Cr593      Cr  0.95731672  0.35623649  0.07842437     1.93700
Cr594      Cr  0.05922479  0.39734033  0.09117080     1.93200
Cr595      Cr  0.01925359  0.31733843  0.06461672     1.39100
O596        O  0.01202004  0.35675412  0.07809788    -1.23700
O597        O  0.69894860  0.99876670  0.26847364    -0.85900
O598        O  0.67720391  0.94581611  0.24052509    -0.83000
C599        C  0.63515146  0.91369976  0.24389367     0.97500
O600        O  0.60154464  0.92126959  0.24116529    -0.83000
O601        O  0.55277314  0.96628394  0.24654856    -0.85700
C602        C  0.55266268  0.97341460  0.26235877     1.02100
O603        O  0.59065839  0.99961687  0.27030610    -0.78400
O604        O  0.68731590  0.05554326  0.27648235    -0.78600
C605        C  0.69617488  0.02318716  0.28020601     1.02000
O606        O  0.74603301  0.08729627  0.24801825    -0.85900
O607        O  0.71715202  0.03267214  0.22004821    -0.83000
C608        C  0.68935849  0.01020932  0.20810911     0.97500
O609        O  0.64667084  0.97967750  0.21125739    -0.83000
O610        O  0.60067800  0.02964092  0.21929851    -0.85600
C611        C  0.58770097  0.05357738  0.22806788     1.02000
O612        O  0.59709644  0.06038462  0.24371586    -0.78400
O613        O  0.69286596  0.10919606  0.24632744    -0.78600
C614        C  0.73506302  0.11874053  0.24460316     1.02000
Cr615      Cr  0.70578063  0.01617923  0.24426785     1.93700
Cr616      Cr  0.60448279  0.97701745  0.23046105     1.93200
Cr617      Cr  0.64314428  0.05346606  0.25820272     1.39100
O618        O  0.65109337  0.01559154  0.24417193    -1.23700
O619        O  0.05388508  0.70923761  0.93364209    -0.85900
O620        O  0.00166371  0.61978218  0.92101466    -0.83000
C621        C  0.96773721  0.58433215  0.91401935     0.97500
O622        O  0.94598810  0.58950374  0.90152615    -0.83000
O623        O  0.88875754  0.61819390  0.91715356    -0.85700
C624        C  0.87822763  0.64503359  0.92526876     1.02100
O625        O  0.90803374  0.68865541  0.92683634    -0.78400
O626        O  0.98904393  0.70464566  0.94308885    -0.78600
C627        C  0.02567235  0.70209385  0.94580010     1.02000
O628        O  0.06913515  0.74479238  0.89915875    -0.85900
O629        O  0.02663355  0.65494407  0.88694606    -0.83000
C630        C  0.01023078  0.66634698  0.87447415     0.97500
O631        O  0.97173077  0.66601862  0.87639810    -0.83000
O632        O  0.90824460  0.68606835  0.89158519    -0.85600
C633        C  0.92448542  0.73009750  0.89303123     1.02000
O634        O  0.96173554  0.75509629  0.90148808    -0.78400
O635        O  0.04587148  0.77887604  0.91784452    -0.78600
C636        C  0.07169385  0.78157954  0.90526002     1.02000
Cr637      Cr  0.03415590  0.68243909  0.91019451     1.93700
Cr638      Cr  0.93265693  0.64279657  0.89741505     1.93200
Cr639      Cr  0.97707277  0.72869493  0.92160791     1.39100
O640        O  0.98084421  0.68458563  0.90979361    -1.23700
C641        C  0.47086172  0.41508658  0.44807713     0.02500
C642        C  0.45035490  0.41309479  0.46413490    -0.13600
C643        C  0.42298034  0.36972946  0.47254388     0.00000
C644        C  0.41530178  0.32813269  0.46469215    -0.12100
C645        C  0.43592293  0.32898605  0.44899460     0.02500
C646        C  0.46420411  0.37266580  0.44075892    -0.11600
H647        H  0.45645049  0.44533902  0.47025613     0.08100
H648        H  0.39346688  0.29454538  0.47105627     0.05700
H649        H  0.48149591  0.37364215  0.42887165     0.05500
C650        C  0.53520765  0.64327554  0.54167382     0.02500
C651        C  0.54766074  0.68804873  0.54843931    -0.13600
C652        C  0.57560168  0.72928302  0.53892266     0.00000
C653        C  0.59157962  0.72596427  0.52277435    -0.12100
C654        C  0.58093968  0.68234211  0.51604328     0.02500
C655        C  0.55292072  0.64093776  0.52547314    -0.11600
H656        H  0.53618986  0.69092558  0.56111115     0.08100
H657        H  0.61289081  0.75783027  0.51539001     0.05700
H658        H  0.54401607  0.60705934  0.52002721     0.05500
O659        O  0.60056906  0.63567877  0.42476718    -0.85900
O660        O  0.64543006  0.72574093  0.43756714    -0.83000
C661        C  0.66591878  0.71618776  0.44922837     0.97500
O662        O  0.70258684  0.71444952  0.44560344    -0.83000
O663        O  0.76252510  0.69533907  0.42742323    -0.85700
C664        C  0.74639131  0.65156463  0.42563631     1.02100
O665        O  0.70775829  0.62657628  0.41787965    -0.78400
O666        O  0.62016584  0.60287384  0.40433725    -0.78600
C667        C  0.59678194  0.59921517  0.41775663     1.02000
O668        O  0.60833043  0.67341976  0.39077459    -0.85900
O669        O  0.66363311  0.76271848  0.40353916    -0.83000
C670        C  0.69945163  0.79788760  0.40991633     0.97500
O671        O  0.72282974  0.79172863  0.42156133    -0.83000
O672        O  0.77610956  0.76393732  0.40274006    -0.85600
C673        C  0.78438292  0.73796746  0.39309864     1.02000
O674        O  0.75487208  0.69419753  0.39192155    -0.78400
O675        O  0.67067958  0.67787343  0.37892790    -0.78600
C676        C  0.63382456  0.68079481  0.37773788     1.02000
Cr677      Cr  0.63314679  0.69908506  0.41402017     1.93700
Cr678      Cr  0.73687526  0.73837990  0.42361981     1.93200
Cr679      Cr  0.68764396  0.65347016  0.39915345     1.39100
O680        O  0.68626039  0.69696517  0.41220741    -1.23700
C681        C  0.41752863  0.30550279  0.70703080     0.02500
C682        C  0.45030192  0.34874238  0.71458954    -0.13600
C683        C  0.46576102  0.39144110  0.70585459     0.00000
C684        C  0.44711603  0.39094748  0.68983192    -0.12100
C685        C  0.41481290  0.34851652  0.68197185     0.02500
C686        C  0.39962400  0.30550447  0.69065822    -0.11600
H687        H  0.46461061  0.34900977  0.72705904     0.08100
H688        H  0.45832212  0.42414183  0.68327941     0.05700
H689        H  0.37536191  0.27234962  0.68453455     0.05500
C690        C  0.24174064  0.08491185  0.61567704     0.02500
C691        C  0.20317766  0.04207579  0.60973254    -0.13600
C692        C  0.19040794  0.99863400  0.61786403     0.00000
C693        C  0.21808298  0.99886547  0.63155141    -0.12100
C694        C  0.25325736  0.04108963  0.63855885     0.02500
C695        C  0.26613732  0.08397010  0.63034549    -0.11600
H696        H  0.18293774  0.04292561  0.59896236     0.08100
H697        H  0.21104158  0.96598611  0.63740226     0.05700
H698        H  0.29477161  0.11648274  0.63550763     0.05500
O699        O  0.39517537  0.38800083  0.60141812    -0.85900
O700        O  0.34449226  0.30003075  0.58773558    -0.83000
C701        C  0.31015068  0.26482809  0.58079256     0.97500
O702        O  0.29009192  0.27065055  0.56790501    -0.83000
O703        O  0.23192608  0.29476964  0.58474972    -0.85700
C704        C  0.21998852  0.31919348  0.59355624     1.02100
O705        O  0.24762785  0.36312244  0.59549483    -0.78400
O706        O  0.32948294  0.38012242  0.61147761    -0.78600
C707        C  0.36791790  0.38076661  0.61389920     1.02000
O708        O  0.41008922  0.42792190  0.56775903    -0.85900
O709        O  0.36997885  0.33963238  0.55377624    -0.83000
C710        C  0.34930491  0.34625842  0.54136951     0.97500
O711        O  0.31228835  0.34824723  0.54399347    -0.83000
O712        O  0.24775906  0.36577696  0.56034073    -0.85600
C713        C  0.26478994  0.40981956  0.56242153     1.02000
O714        O  0.30191247  0.43380992  0.57096587    -0.78400
O715        O  0.38490371  0.45800215  0.58735258    -0.78600
C716        C  0.41272454  0.46349022  0.57507276     1.02000
Cr717      Cr  0.37613310  0.36385397  0.57763333     1.93700
Cr718      Cr  0.27440469  0.32296573  0.56503121     1.93200
Cr719      Cr  0.31675198  0.40573271  0.59053142     1.39100
O720        O  0.32217493  0.36434047  0.57768523    -1.23700
C721        C  0.29147749  0.21769892  0.58887899    -0.06700
C722        C  0.28266014  0.21466303  0.60646383    -0.17800
C723        C  0.26418110  0.17176820  0.61525247     0.10500
C724        C  0.25661407  0.13054700  0.60660258    -0.06600
C725        C  0.26580359  0.13364094  0.58896344    -0.17900
C726        C  0.28235939  0.17641484  0.58001825     0.10500
S727        S  0.24859883  0.17188224  0.63726100    -0.32800
S728        S  0.29492374  0.17717996  0.55768223    -0.32800
H729        H  0.26516146  0.19469603  0.55282136     0.28500
H730        H  0.20841705  0.12641487  0.63671447     0.28500
H731        H  0.28888339  0.24596053  0.61338284     0.19100
H732        H  0.26068740  0.10264917  0.58213395     0.19100
C733        C  0.40045017  0.35125376  0.66426781    -0.06700
C734        C  0.43664424  0.37442384  0.65216151    -0.17800
C735        C  0.42761239  0.38608480  0.63601460     0.10500
C736        C  0.38055425  0.37227083  0.63125451    -0.06600
C737        C  0.34402781  0.34765286  0.64323711    -0.17900
C738        C  0.35353863  0.33789144  0.65971156     0.10500
S739        S  0.47843736  0.42140767  0.62270999    -0.32800
S740        S  0.30465454  0.31020119  0.67444703    -0.32800
H741        H  0.33047888  0.33469502  0.68895668     0.28500
H742        H  0.46324557  0.45319108  0.61794209     0.28500
H743        H  0.47292429  0.38572494  0.65566457     0.19100
H744        H  0.30771435  0.33648369  0.63986258     0.19100
C745        C  0.59893155  0.68184867  0.49882869    -0.06700
C746        C  0.64555296  0.69083112  0.49716795    -0.17800
C747        C  0.66899592  0.70303327  0.48138927     0.10500
C748        C  0.64502211  0.70553407  0.46670059    -0.06600
C749        C  0.59776860  0.69509971  0.46848476    -0.17900
C750        C  0.57477747  0.68363609  0.48424811     0.10500
S751        S  0.73013615  0.71789789  0.48126049    -0.32800
S752        S  0.51565409  0.67495383  0.48508661    -0.32800
H753        H  0.50013115  0.64433850  0.49916502     0.28500
H754        H  0.74554325  0.75995777  0.47197738     0.28500
H755        H  0.66481108  0.69115633  0.50846226     0.19100
H756        H  0.57826279  0.69609365  0.45748426     0.19100
C757        C  0.44748095  0.51166344  0.56875301    -0.06700
C758        C  0.43363715  0.54596667  0.56783545    -0.17800
C759        C  0.46098212  0.58877325  0.55907236     0.10500
C760        C  0.50455885  0.59889242  0.55146951    -0.06600
C761        C  0.51925566  0.56534546  0.55306292    -0.17900
C762        C  0.49159093  0.52233800  0.56158210     0.10500
S763        S  0.43598336  0.62677277  0.55688789    -0.32800
S764        S  0.51511686  0.48295310  0.56306839    -0.32800
H765        H  0.49640695  0.46577810  0.57936960     0.28500
H766        H  0.45204936  0.64096440  0.54011822     0.28500
H767        H  0.39962235  0.53809796  0.57301936     0.19100
H768        H  0.55289531  0.57278623  0.54765062     0.19100
C769        C  0.50207867  0.46200478  0.43979388    -0.06700
C770        C  0.53686373  0.49860947  0.44977456    -0.17800
C771        C  0.56805762  0.54312352  0.44288875     0.10500
C772        C  0.56518814  0.55208873  0.42542948    -0.06600
C773        C  0.53094246  0.51557910  0.41531929    -0.17900
C774        C  0.49872603  0.47129394  0.42234623     0.10500
S775        S  0.61181040  0.58629786  0.45705666    -0.32800
S776        S  0.45231587  0.42972055  0.40861380    -0.32800
H777        H  0.41757842  0.41071210  0.42144977     0.28500
H778        H  0.64809784  0.60713156  0.44485842     0.28500
H779        H  0.54051167  0.49223782  0.46309038     0.19100
H780        H  0.52796842  0.52225534  0.40197807     0.19100
C781        C  0.40513602  0.36670594  0.49017310    -0.06700
C782        C  0.41720020  0.34301535  0.50232898    -0.17800
C783        C  0.39865862  0.33457101  0.51881271     0.10500
C784        C  0.36841195  0.35185701  0.52378490    -0.06600
C785        C  0.35720379  0.37663830  0.51170547    -0.17900
C786        C  0.37459202  0.38366019  0.49497369     0.10500
S787        S  0.41322954  0.29923697  0.53239645    -0.32800
S788        S  0.35510285  0.41295365  0.48034450    -0.32800
H789        H  0.35374147  0.38684531  0.46592224     0.28500
H790        H  0.36636892  0.27018266  0.53805056     0.28500
H791        H  0.44040139  0.32960987  0.49875906     0.19100
H792        H  0.33426391  0.39037241  0.51525888     0.19100
C793        C  0.92066938  0.33879130  0.16571269    -0.06700
C794        C  0.96971981  0.36627784  0.16291050    -0.17800
C795        C  0.98886316  0.37692390  0.14645484     0.10500
C796        C  0.95854853  0.35877955  0.13215247    -0.06600
C797        C  0.90937954  0.33017901  0.13509213    -0.17900
C798        C  0.89020172  0.32034983  0.15161043     0.10500
S799        S  0.05212152  0.41395428  0.14477999    -0.32800
S800        S  0.82672553  0.28684239  0.15450522    -0.32800
H801        H  0.81456115  0.27856584  0.13716364     0.28500
H802        H  0.04882057  0.45006474  0.13624218     0.28500
H803        H  0.99327511  0.38115775  0.17372232     0.19100
H804        H  0.88553663  0.31624532  0.12437699     0.19100
C805        C  0.83165755  0.25120830  0.21933618    -0.06700
C806        C  0.79201455  0.24597632  0.22830155    -0.17800
C807        C  0.76273244  0.20527342  0.23780860     0.10500
C808        C  0.77077511  0.16639365  0.23774307    -0.06600
C809        C  0.81114052  0.17195896  0.22914941    -0.17900
C810        C  0.84206727  0.21398014  0.22039316     0.10500
S811        S  0.71671318  0.20644571  0.25017517    -0.32800
S812        S  0.89499088  0.21819841  0.21147874    -0.32800
H813        H  0.92379068  0.26697449  0.21441760     0.28500
H814        H  0.72242161  0.18338447  0.26434347     0.28500
H815        H  0.78367369  0.27416612  0.22799089     0.19100
H816        H  0.81856860  0.14313806  0.22908792     0.19100
C817        C  0.83191006  0.11858755  0.10257640    -0.06700
C818        C  0.81616705  0.15107905  0.09995922    -0.17800
C819        C  0.84447369  0.19449512  0.09156212     0.10500
C820        C  0.88975198  0.20597016  0.08515356    -0.06600
C821        C  0.90377302  0.17180108  0.08695628    -0.17900
C822        C  0.87651408  0.12958216  0.09592214     0.10500
S823        S  0.82088355  0.23364643  0.08994935    -0.32800
S824        S  0.90293769  0.09342259  0.09964202    -0.32800
H825        H  0.88691017  0.08204211  0.11655359     0.28500
H826        H  0.85883426  0.27009320  0.09887639     0.28500
H827        H  0.78195972  0.14312220  0.10493407     0.19100
H828        H  0.93770012  0.17887210  0.08204770     0.19100
C829        C  0.74895818  0.04137674  0.15748184    -0.06700
C830        C  0.70060797  0.02526504  0.15980647    -0.17800
C831        C  0.67993618  0.01416147  0.17600604     0.10500
C832        C  0.70823771  0.01973586  0.19043218    -0.06600
C833        C  0.75710575  0.03752458  0.18805295    -0.17900
C834        C  0.77762165  0.04812970  0.17182646     0.10500
S835        S  0.61756218  0.99372220  0.17735712    -0.32800
S836        S  0.83975327  0.06686663  0.17023014    -0.32800
H837        H  0.84870936  0.09392680  0.15537715     0.28500
H838        H  0.60649442  0.94813688  0.18259403     0.28500
H839        H  0.67827896  0.01906906  0.14876823     0.19100
H840        H  0.77956496  0.04233085  0.19892277     0.19100
C841        C  0.93288207  0.36873606  0.99130552    -0.06700
C842        C  0.91504320  0.38236212  0.00497950    -0.17800
C843        C  0.92310712  0.37414228  0.02174303     0.10500
C844        C  0.95140845  0.35323755  0.02506221    -0.06600
C845        C  0.97016214  0.34063264  0.01123593    -0.17900
C846        C  0.96121292  0.34816436  0.99444229     0.10500
S847        S  0.89300106  0.38802077  0.03804642    -0.32800
S848        S  0.98635355  0.33031131  0.97753341    -0.32800
H849        H  0.98790088  0.36255623  0.96533537     0.28500
H850        H  0.87709402  0.34519760  0.04688713     0.28500
H851        H  0.89207153  0.39680363  0.00254113     0.19100
H852        H  0.99233960  0.32522173  0.01349060     0.19100
C853        C  0.95257711  0.53674321  0.92093013    -0.06700
C854        C  0.90402888  0.50571579  0.92356312    -0.17800
C855        C  0.88792013  0.46416573  0.93307890     0.10500
C856        C  0.92088767  0.45195586  0.93951462    -0.06600
C857        C  0.96931469  0.48212174  0.93629010    -0.17900
C858        C  0.98543693  0.52409005  0.92708183     0.10500
S859        S  0.82534914  0.43032960  0.93764403    -0.32800
S860        S  0.04830378  0.55945042  0.92332740    -0.32800
H861        H  0.04418786  0.57660722  0.90735932     0.28500
H862        H  0.83056087  0.41685696  0.95415395     0.28500
H863        H  0.87862415  0.51537366  0.91909669     0.19100
H864        H  0.99481217  0.47269996  0.94087750     0.19100
C865        C  0.05714763  0.58443771  0.04905903    -0.06700
C866        C  0.03008799  0.57278638  0.06412579    -0.17800
C867        C  0.01901977  0.53174119  0.07352211     0.10500
C868        C  0.03542111  0.50142917  0.06782605    -0.06600
C869        C  0.06139846  0.51268840  0.05254620    -0.17900
C870        C  0.07272845  0.55361247  0.04325876     0.10500
S871        S  0.98517895  0.52090282  0.09281774    -0.32800
S872        S  0.10834559  0.56496173  0.02435171    -0.32800
H873        H  0.13447492  0.61434015  0.02625722     0.28500
H874        H  0.00758187  0.50034580  0.10180318     0.28500
H875        H  0.01795656  0.59617079  0.06870872     0.19100
H876        H  0.07322234  0.48924738  0.04776636     0.19100
C877        C  0.05952222  0.67414615  0.99610460    -0.06700
C878        C  0.01206132  0.65528751  0.99133159    -0.17800
C879        C  0.99992763  0.66266398  0.97494337     0.10500
C880        C  0.03602316  0.69109470  0.96310513    -0.06600
C881        C  0.08341430  0.70828312  0.96773558    -0.17900
C882        C  0.09545487  0.69959428  0.98389036     0.10500
S883        S  0.93782776  0.63318527  0.96979702    -0.32800
S884        S  0.15749543  0.72197285  0.98810045    -0.32800
H885        H  0.15052218  0.68674256  0.99993761     0.28500
H886        H  0.94414124  0.61868843  0.95360722     0.28500
H887        H  0.98427344  0.63527793  0.00051215     0.19100
H888        H  0.11148396  0.72891862  0.95872679     0.19100
C889        C  0.62018689  0.69231319  0.36111718    -0.06700
C890        C  0.57216477  0.67630979  0.35787614    -0.17800
C891        C  0.55719547  0.68386822  0.34207358     0.10500
C892        C  0.59067308  0.70696152  0.32889183    -0.06600
C893        C  0.63885618  0.72551048  0.33241896    -0.17900
C894        C  0.65401606  0.71936145  0.34840890     0.10500
S895        S  0.49475161  0.66261463  0.33944629    -0.32800
S896        S  0.71705785  0.74806300  0.35181341    -0.32800
H897        H  0.71488138  0.76351604  0.36834398     0.28500
H898        H  0.50007386  0.69523395  0.32672796     0.28500
H899        H  0.54587842  0.65702531  0.36761359     0.19100
H900        H  0.66481667  0.74381038  0.32249437     0.19100
C901        C  0.59250411  0.78551070  0.27295416    -0.06700
C902        C  0.64092957  0.81904744  0.27126717    -0.17800
C903        C  0.65676331  0.85937866  0.26087787     0.10500
C904        C  0.62350741  0.86735743  0.25198034    -0.06600
C905        C  0.57523466  0.83251877  0.25326574    -0.17900
C906        C  0.55945072  0.79289831  0.26381169     0.10500
S907        S  0.71964638  0.89937654  0.25993543    -0.32800
S908        S  0.49617329  0.75519867  0.26598189    -0.32800
H909        H  0.49725829  0.74496485  0.28332166     0.28500
H910        H  0.72069648  0.90075912  0.24202208     0.28500
H911        H  0.66676325  0.81356841  0.27799980     0.19100
H912        H  0.54878462  0.83726238  0.24666396     0.19100
C913        C  0.75158989  0.93305909  0.38514375    -0.06700
C914        C  0.70255710  0.90277181  0.38731372    -0.17800
C915        C  0.68433253  0.85961178  0.39609369     0.10500
C916        C  0.71577662  0.84628388  0.40316172    -0.06600
C917        C  0.76472812  0.87826121  0.40216698    -0.17900
C918        C  0.78292253  0.92064444  0.39296036     0.10500
S919        S  0.62095095  0.82257986  0.39851454    -0.32800
S920        S  0.84631444  0.95511003  0.39051619    -0.32800
H921        H  0.84491640  0.96499418  0.37315802     0.28500
H922        H  0.60799900  0.85095019  0.38910213     0.28500
H923        H  0.67839972  0.91272077  0.38180159     0.19100
H924        H  0.78926107  0.86870309  0.40763802     0.19100
C925        C  0.73878302  0.00527989  0.33031661    -0.06700
C926        C  0.71954883  0.03489717  0.32805642    -0.17800
C927        C  0.70233825  0.03922632  0.31227042     0.10500
C928        C  0.70608765  0.01481470  0.29800811    -0.06600
C929        C  0.72177564  0.98216800  0.30070973    -0.17900
C930        C  0.73817965  0.97722921  0.31660039     0.10500
S931        S  0.67581276  0.07602918  0.31145876    -0.32800
S932        S  0.76005360  0.93647118  0.31818858    -0.32800
H933        H  0.79753986  0.96415292  0.32934014     0.28500
H934        H  0.63588654  0.04266481  0.30231122     0.28500
H935        H  0.71849027  0.05538667  0.33872727     0.19100
H936        H  0.72332010  0.96157048  0.29019261     0.19100
C937        C  0.38137001  0.17683161  0.73460231    -0.06700
C938        C  0.42729764  0.20588742  0.72795682    -0.17800
C939        C  0.43934544  0.24694826  0.71869126     0.10500
C940        C  0.40513915  0.26055931  0.71588716    -0.06600
C941        C  0.35955060  0.23259690  0.72273063    -0.17900
C942        C  0.34755959  0.19161325  0.73227822     0.10500
S943        S  0.49896836  0.27987267  0.71044578    -0.32800
S944        S  0.28928642  0.16121585  0.74158851    -0.32800
H945        H  0.30556581  0.15604048  0.75759589     0.28500
H946        H  0.48745573  0.29610114  0.69562824     0.28500
H947        H  0.45416086  0.19595246  0.72947897     0.19100
H948        H  0.33349670  0.24355478  0.72103943     0.19100
C949        C  0.29679488  0.02518939  0.68869959    -0.06700
C950        C  0.26976664  0.04740776  0.68635624    -0.17800
C951        C  0.25630685  0.05397827  0.67018750     0.10500
C952        C  0.27116835  0.03945845  0.65567765    -0.06600
C953        C  0.29859995  0.01776934  0.65781942    -0.17900
C954        C  0.31207349  0.01103128  0.67407904     0.10500
S955        S  0.21785455  0.07872821  0.66910667    -0.32800
S956        S  0.34983758  0.98565114  0.67513622    -0.32800
H957        H  0.38214127  0.02054582  0.68626818     0.28500
H958        H  0.18966006  0.05012469  0.65566322     0.28500
H959        H  0.25738957  0.05842286  0.69728083     0.19100
H960        H  0.30955470  0.00596937  0.64671492     0.19100
C961        C  0.26205556  0.00558263  0.82990013    -0.06700
C962        C  0.30917520  0.04096608  0.82691066    -0.17800
C963        C  0.32770173  0.05277039  0.81044554     0.10500
C964        C  0.29921336  0.02713775  0.79637572    -0.06600
C965        C  0.25293476  0.98954777  0.79958528    -0.17900
C966        C  0.23383304  0.97921569  0.81601534     0.10500
S967        S  0.38711426  0.10203002  0.80853855    -0.32800
S968        S  0.17250340  0.93396403  0.81814587    -0.32800
H969        H  0.16102466  0.95852799  0.83016178     0.28500
H970        H  0.37334868  0.12765910  0.79787657     0.28500
H971        H  0.33108155  0.06145466  0.83753134     0.19100
H972        H  0.23048894  0.96875786  0.78914118     0.19100
C973        C  0.16936465  0.91465013  0.88159806    -0.06700
C974        C  0.13269186  0.87845738  0.87218117    -0.17800
C975        C  0.10060015  0.83529882  0.87960803     0.10500
C976        C  0.10416622  0.82757911  0.89715578    -0.06600
C977        C  0.14093130  0.86358575  0.90668184    -0.17900
C978        C  0.17420918  0.90648812  0.89901315     0.10500
S979        S  0.05577445  0.79252969  0.86567567    -0.32800
S980        S  0.22343294  0.94789005  0.91182884    -0.32800
H981        H  0.25594733  0.96687832  0.89828960     0.28500
H982        H  0.02213240  0.76593111  0.87811766     0.28500
H983        H  0.12834333  0.88417902  0.85886397     0.19100
H984        H  0.14484690  0.85753879  0.91999442     0.19100
C985        C  0.16954331  0.79882476  0.77112374    -0.06700
C986        C  0.20572005  0.80002054  0.76095713    -0.17800
C987        C  0.23409355  0.83843660  0.75033293     0.10500
C988        C  0.22955263  0.87930944  0.75062468    -0.06600
C989        C  0.19264913  0.87788458  0.76037011    -0.17900
C990        C  0.16191929  0.83789022  0.77010458     0.10500
S991        S  0.27402485  0.83189372  0.73618604    -0.32800
S992        S  0.11245738  0.83837200  0.78009160    -0.32800
H993        H  0.08079798  0.79004188  0.77725636     0.28500
H994        H  0.26919231  0.85768564  0.72275808     0.28500
H995        H  0.21205091  0.77052842  0.76116556     0.19100
H996        H  0.18784639  0.90834953  0.76055337     0.19100
C997        C  0.08620829  0.72013617  0.82690373    -0.06700
C998        C  0.10871132  0.71282394  0.84079150    -0.17800
C999        C  0.08477279  0.69392285  0.85617049     0.10500
C1000       C  0.03675414  0.68233472  0.85801927    -0.06600
C1001       C  0.01497728  0.69136759  0.84418336    -0.17900
C1002       C  0.03918291  0.71043030  0.82887771     0.10500
S1003       S  0.11769449  0.68433048  0.87253184    -0.32800
S1004       S  0.00726611  0.71889377  0.81184919    -0.32800
H1005       H  0.04678872  0.76016416  0.80573836     0.28500
H1006       H  0.08497670  0.63557567  0.87359838     0.28500
H1007       H  0.14421845  0.71859311  0.83919500     0.19100
H1008       H  0.97876514  0.68388513  0.84527205     0.19100
C1009       C  0.94700718  0.52600841  0.22122377    -0.06700
C1010       C  0.97837566  0.50826248  0.22158786    -0.17800
C1011       C  0.96286502  0.46064566  0.21846201     0.10500
C1012       C  0.91482960  0.42940215  0.21459469    -0.06600
C1013       C  0.88312381  0.44661598  0.21436036    -0.17900
C1014       C  0.89864155  0.49448595  0.21753857     0.10500
S1015       S  0.00630771  0.44191874  0.21933112    -0.32800
S1016       S  0.85560025  0.51347669  0.21574102    -0.32800
H1017       H  0.88714310  0.55759125  0.20842103     0.28500
H1018       H  0.97461020  0.39496646  0.22413647     0.28500
H1019       H  0.01530982  0.53142786  0.22481598     0.19100
H1020       H  0.84649512  0.42308453  0.21085864     0.19100
C1021       C  0.85998210  0.64538863  0.22948672    -0.06700
C1022       C  0.85835906  0.63850700  0.21179483    -0.17800
C1023       C  0.81568329  0.61903354  0.20276942     0.10500
C1024       C  0.77321207  0.60822174  0.21139666    -0.06600
C1025       C  0.77499221  0.61503074  0.22917378    -0.17900
C1026       C  0.81764267  0.63318940  0.23826448     0.10500
S1027       S  0.81794680  0.60620370  0.18055011    -0.32800
S1028       S  0.81600014  0.64182148  0.26086844    -0.32800
H1029       H  0.86103236  0.68258093  0.26179669     0.28500
H1030       H  0.77259967  0.56575314  0.18016948     0.28500
H1031       H  0.89055193  0.64667741  0.20500246     0.19100
H1032       H  0.74308547  0.60734755  0.23601597     0.19100
C1033       C  0.00891183  0.73724459  0.19033582    -0.06700
C1034       C  0.98301943  0.70063760  0.17856144    -0.17800
C1035       C  0.96864108  0.70940803  0.16274509     0.10500
C1036       C  0.97884271  0.75564091  0.15861138    -0.06600
C1037       C  0.00226275  0.79157182  0.17072898    -0.17900
C1038       C  0.01815878  0.78337202  0.18620491     0.10500
S1039       S  0.93910904  0.66051339  0.14821238    -0.32800
S1040       S  0.05269304  0.83441600  0.19941216    -0.32800
H1041       H  0.08883485  0.82362038  0.20223494     0.28500
H1042       H  0.96182595  0.68638439  0.13346429     0.28500
H1043       H  0.97448939  0.66487334  0.18155284     0.19100
H1044       H  0.01093457  0.82734080  0.16760637     0.19100
C1045       C  0.41460482  0.93930947  0.27797655    -0.06700
C1046       C  0.42294057  0.90253633  0.27351729    -0.17800
C1047       C  0.46868669  0.91192360  0.26948405     0.10500
C1048       C  0.50692684  0.95875387  0.27038562    -0.06600
C1049       C  0.49857557  0.99525454  0.27500152    -0.17900
C1050       C  0.45287425  0.98635695  0.27820190     0.10500
S1051       S  0.47618774  0.86300710  0.26328898    -0.32800
S1052       S  0.44549264  0.03702000  0.28131996    -0.32800
H1053       H  0.39986575  0.01631177  0.27418971     0.28500
H1054       H  0.52385763  0.88382777  0.26830791     0.28500
H1055       H  0.39388719  0.86638848  0.27341983     0.19100
H1056       H  0.52739845  0.03153876  0.27476222     0.19100
C1057       C  0.23693852  0.86190527  0.27135363    -0.06700
C1058       C  0.19840679  0.82814948  0.28090260    -0.17800
C1059       C  0.15515451  0.79703594  0.27334962     0.10500
C1060       C  0.14954192  0.79826561  0.25552457    -0.06600
C1061       C  0.18816257  0.83117437  0.24576033    -0.17900
C1062       C  0.23125716  0.86381237  0.25349127     0.10500
S1063       S  0.10914972  0.75618584  0.28745808    -0.32800
S1064       S  0.27582653  0.90880325  0.23999379    -0.32800
H1065       H  0.29359363  0.94447691  0.25245520     0.28500
H1066       H  0.08699451  0.71903372  0.27573974     0.28500
H1067       H  0.20209775  0.82537477  0.29450300     0.19100
H1068       H  0.18397796  0.83303050  0.23214317     0.19100
C1069       C  0.83142035  0.75626424  0.38484056    -0.06700
C1070       C  0.84698465  0.72365145  0.38215294    -0.17800
C1071       C  0.89354503  0.73827674  0.37753825     0.10500
C1072       C  0.92557758  0.78661584  0.37470673    -0.06600
C1073       C  0.91019108  0.81939965  0.37675152    -0.17900
C1074       C  0.86339980  0.80470936  0.38162548     0.10500
S1075       S  0.91023453  0.69345346  0.37590370    -0.32800
S1076       S  0.84634816  0.84906790  0.38252117    -0.32800
H1077       H  0.79976515  0.81927171  0.37684872     0.28500
H1078       H  0.95753931  0.72250003  0.38100619     0.28500
H1079       H  0.82353624  0.68641305  0.38466407     0.19100
H1080       H  0.93432334  0.85637339  0.37401110     0.19100
C1081       C  0.01875305  0.77672719  0.32741560    -0.06700
C1082       C  0.00985694  0.73019086  0.32650241    -0.17800
C1083       C  0.99891943  0.70565745  0.31100452     0.10500
C1084       C  0.99553742  0.72760549  0.29585955    -0.06600
C1085       C  0.00505228  0.77461267  0.29691279    -0.17900
C1086       C  0.01686083  0.79927905  0.31237887     0.10500
S1087       S  0.98767214  0.64588031  0.31175362    -0.32800
S1088       S  0.02731774  0.85891882  0.31224585    -0.32800
H1089       H  0.05804675  0.87479237  0.32630675     0.28500
H1090       H  0.02791409  0.65654993  0.30191223     0.28500
H1091       H  0.00994810  0.71224614  0.33810756     0.19100
H1092       H  0.00368653  0.79270781  0.28555206     0.19100
C1093       C  0.39753000  0.18925068  0.43209885    -0.06700
C1094       C  0.39134818  0.21971066  0.42117328    -0.17800
C1095       C  0.40503333  0.26598399  0.42597695     0.10500
C1096       C  0.42734575  0.28323731  0.44185694    -0.06600
C1097       C  0.43657522  0.25356177  0.45225322    -0.17900
C1098       C  0.42173121  0.20673517  0.44761472     0.10500
S1099       S  0.38953249  0.29946217  0.41181774    -0.32800
S1100       S  0.43437063  0.17170648  0.46219681    -0.32800
H1101       H  0.40843761  0.12763525  0.45420656     0.28500
H1102       H  0.37480271  0.31891296  0.42477443     0.28500
H1103       H  0.37351763  0.20654069  0.40910864     0.19100
H1104       H  0.45402037  0.26652037  0.46439047     0.19100
C1105       C  0.18642462  0.91559138  0.40061829    -0.06700
C1106       C  0.15605978  0.93385976  0.39814353    -0.17800
C1107       C  0.11493372  0.90989550  0.38824138     0.10500
C1108       C  0.10232531  0.86537953  0.38104275    -0.06600
C1109       C  0.13169176  0.84614489  0.38413940    -0.17900
C1110       C  0.17349068  0.87070701  0.39378879     0.10500
S1111       S  0.08215143  0.93989288  0.38428340    -0.32800
S1112       S  0.20913218  0.84370403  0.39787467    -0.32800
H1113       H  0.18349682  0.80382053  0.38745986     0.28500
H1114       H  0.06926410  0.92339596  0.36750391     0.28500
H1115       H  0.16603869  0.96862014  0.40302396     0.19100
H1116       H  0.12162230  0.81162420  0.37902376     0.19100
C1117       C  0.33940682  0.99049075  0.35707428    -0.06700
C1118       C  0.34515399  0.02023425  0.34322212    -0.17800
C1119       C  0.33649937  0.00326367  0.32651502     0.10500
C1120       C  0.32050852  0.95510039  0.32348525    -0.06600
C1121       C  0.31338104  0.92496544  0.33721918    -0.17900
C1122       C  0.32333177  0.94210642  0.35388438     0.10500
S1123       S  0.34901343  0.04534390  0.30959770    -0.32800
S1124       S  0.31507156  0.90028952  0.37032307    -0.32800
H1125       H  0.36368372  0.92319270  0.37424272     0.28500
H1126       H  0.31905061  0.01282374  0.29734596     0.28500
H1127       H  0.35751773  0.05736885  0.34535333     0.19100
H1128       H  0.30244226  0.88823858  0.33482628     0.19100
C1129       C  0.59004356  0.77685748  0.54554237    -0.06700
C1130       C  0.55633263  0.79142767  0.54685930    -0.17800
C1131       C  0.57015227  0.83893519  0.55004198     0.10500
C1132       C  0.61882073  0.87266718  0.55210326    -0.06600
C1133       C  0.65200094  0.85749427  0.55056521    -0.17900
C1134       C  0.63835081  0.81037116  0.54771157     0.10500
S1135       S  0.52434705  0.85437662  0.55034929    -0.32800
S1136       S  0.68451663  0.79522749  0.54715603    -0.32800
H1137       H  0.65621413  0.74855281  0.55298204     0.28500
H1138       H  0.55213229  0.89892317  0.54268907     0.28500
H1139       H  0.51928252  0.76605247  0.54468371     0.19100
H1140       H  0.68909217  0.88223890  0.55222986     0.19100
C1141       C  0.67966667  0.08338513  0.52173533    -0.06700
C1142       C  0.69203629  0.13071638  0.51899136    -0.17800
C1143       C  0.68238153  0.14556631  0.50357908     0.10500
C1144       C  0.66079607  0.11286932  0.49017236    -0.06600
C1145       C  0.64713819  0.06534528  0.49292217    -0.17900
C1146       C  0.65552831  0.05008967  0.50856893     0.10500
S1147       S  0.69854218  0.20690057  0.50183303    -0.32800
S1148       S  0.63326577  0.98761777  0.51092212    -0.32800
H1149       H  0.61276072  0.98476934  0.52697970     0.28500
H1150       H  0.66262222  0.19951870  0.49024376     0.28500
H1151       H  0.70953143  0.15668046  0.52894923     0.19100
H1152       H  0.63036800  0.04002785  0.48271711     0.19100
C1153       C  0.47899800  0.07235746  0.42135995    -0.06700
C1154       C  0.48277341  0.08725888  0.43831798    -0.17800
C1155       C  0.52589468  0.10760659  0.44699878     0.10500
C1156       C  0.56629402  0.11105070  0.43890678    -0.06600
C1157       C  0.56248624  0.09644825  0.42179548    -0.17900
C1158       C  0.51944698  0.07746034  0.41292873     0.10500
S1159       S  0.52711398  0.13067669  0.46797956    -0.32800
S1160       S  0.51816548  0.05901897  0.39119976    -0.32800
H1161       H  0.47055125  0.02266024  0.39120308     0.28500
H1162       H  0.57365058  0.16899194  0.46667434     0.28500
H1163       H  0.45193644  0.08425007  0.44472845     0.19100
H1164       H  0.59299267  0.09876046  0.41538692     0.19100
C1165       C  0.52613252  0.99149311  0.56559180    -0.06700
C1166       C  0.49205630  0.94322024  0.56659432    -0.17800
C1167       C  0.44834716  0.92451037  0.55817474     0.10500
C1168       C  0.43714254  0.95489770  0.54891547    -0.06600
C1169       C  0.47038081  0.00345605  0.54861574    -0.17900
C1170       C  0.51418589  0.02201599  0.55683876     0.10500
S1171       S  0.41042547  0.86117735  0.55872633    -0.32800
S1172       S  0.55260443  0.08523125  0.55590435    -0.32800
H1173       H  0.56950114  0.08916470  0.57265360     0.28500
H1174       H  0.39382585  0.85729355  0.54194887     0.28500
H1175       H  0.50062159  0.91924672  0.57312867     0.19100
H1176       H  0.46195074  0.02743162  0.54201299     0.19100
C1177       C  0.34613584  0.95407786  0.49667774    -0.06700
C1178       C  0.32513222  0.91922545  0.48409673    -0.17800
C1179       C  0.31383173  0.92935810  0.46806224     0.10500
C1180       C  0.32568832  0.97632223  0.46398803    -0.06600
C1181       C  0.34804566  0.01152093  0.47652626    -0.17900
C1182       C  0.35737029  0.00074683  0.49285285     0.10500
S1183       S  0.28138119  0.87975708  0.45402199    -0.32800
S1184       S  0.38155132  0.04756710  0.50841724    -0.32800
H1185       H  0.35607733  0.01928612  0.52239023     0.28500
H1186       H  0.24715566  0.89235535  0.44991172     0.28500
H1187       H  0.31518206  0.88305074  0.48712993     0.19100
H1188       H  0.35757406  0.04768817  0.47373720     0.19100
C1189       C  0.17072539  0.29865693  0.59917993    -0.06700
C1190       C  0.14172328  0.31004856  0.58951057    -0.17800
C1191       C  0.09679562  0.29889479  0.59520196     0.10500
C1192       C  0.07954372  0.27413948  0.61068854    -0.06600
C1193       C  0.10782484  0.26079269  0.62000157    -0.17900
C1194       C  0.15320975  0.27259979  0.61435190     0.10500
S1195       S  0.06508406  0.32050596  0.58276447    -0.32800
S1196       S  0.18770683  0.25565861  0.62740450    -0.32800
H1197       H  0.21471000  0.25257213  0.61407466     0.28500
H1198       H  0.04593201  0.33205335  0.59676565     0.28500
H1199       H  0.15520025  0.32998377  0.57780389     0.19100
H1200       H  0.09471861  0.24175747  0.63188447     0.19100
C1201       C  0.90302019  0.19980088  0.60633042    -0.06700
C1202       C  0.90178550  0.20633801  0.58857760    -0.17800
C1203       C  0.86039105  0.17917550  0.57895808     0.10500
C1204       C  0.81867950  0.14516837  0.58721999    -0.06600
C1205       C  0.81984709  0.13900098  0.60487590    -0.17900
C1206       C  0.86145090  0.16427968  0.61432717     0.10500
S1207       S  0.86271263  0.19076310  0.55643068    -0.32800
S1208       S  0.85952509  0.14630341  0.63616980    -0.32800
H1209       H  0.90553886  0.15281165  0.63609329     0.28500
H1210       H  0.81540200  0.18002411  0.55492436     0.28500
H1211       H  0.93315315  0.23324164  0.58215382     0.19100
H1212       H  0.78832613  0.11273831  0.61129613     0.19100
C1213       C  0.49885785  0.08448514  0.71714157    -0.06700
C1214       C  0.53196948  0.13287666  0.71853436    -0.17800
C1215       C  0.57855541  0.15130603  0.71274166     0.10500
C1216       C  0.59296031  0.12039032  0.70604970    -0.06600
C1217       C  0.55973526  0.07194319  0.70474698    -0.17900
C1218       C  0.51290020  0.05367077  0.71020054     0.10500
S1219       S  0.61732059  0.21443182  0.71384216    -0.32800
S1220       S  0.47233131  0.99063644  0.70938994    -0.32800
H1221       H  0.50455656  0.97786087  0.70290788     0.28500
H1222       H  0.64258184  0.21812570  0.69885205     0.28500
H1223       H  0.52132244  0.15646205  0.72409868     0.19100
H1224       H  0.57088074  0.04832661  0.69960643     0.19100
C1225       C  0.67376401  0.07627841  0.62689534    -0.06700
C1226       C  0.66256547  0.11224281  0.62929888    -0.17800
C1227       C  0.67231274  0.13715429  0.64458570     0.10500
C1228       C  0.69290260  0.12559062  0.65817758    -0.06600
C1229       C  0.70685658  0.09192700  0.65561027    -0.17900
C1230       C  0.69823376  0.06764851  0.64012374     0.10500
S1231       S  0.65619299  0.18238744  0.64616845    -0.32800
S1232       S  0.71841275  0.02557740  0.63862063    -0.32800
H1233       H  0.73780842  0.03918229  0.62223736     0.28500
H1234       H  0.68938660  0.20895324  0.65884429     0.28500
H1235       H  0.64529889  0.12078425  0.61928253     0.19100
H1236       H  0.72274183  0.08299326  0.66601475     0.19100
C1237       C  0.71413401  0.84502574  0.10226198    -0.06700
C1238       C  0.76246217  0.87843276  0.10060696    -0.17800
C1239       C  0.78037422  0.92566008  0.10538511     0.10500
C1240       C  0.74901876  0.94054300  0.11128933    -0.06600
C1241       C  0.70056302  0.90692106  0.11287736    -0.17900
C1242       C  0.68285185  0.85944944  0.10846454     0.10500
S1243       S  0.84346947  0.96454449  0.10405768    -0.32800
S1244       S  0.61990409  0.81827127  0.10966155    -0.32800
H1245       H  0.60639274  0.85081689  0.11508571     0.28500
H1246       H  0.84671624  0.99058903  0.11874059     0.28500
H1247       H  0.78638874  0.86759421  0.09550948     0.19100
H1248       H  0.67650162  0.91818127  0.11748237     0.19100
C1249       C  0.80860186  0.73492853  0.08423970    -0.06700
C1250       C  0.81381269  0.69864948  0.09177377    -0.17800
C1251       C  0.85323615  0.70867665  0.10196421     0.10500
C1252       C  0.88772548  0.75616543  0.10542804    -0.06600
C1253       C  0.88260654  0.79224590  0.09783009    -0.17900
C1254       C  0.84462755  0.78250364  0.08704060     0.10500
S1255       S  0.85822874  0.65936339  0.10956658    -0.32800
S1256       S  0.84482152  0.83184055  0.07644586    -0.32800
H1257       H  0.88009919  0.86807577  0.08642673     0.28500
H1258       H  0.90771968  0.68189347  0.10773428     0.28500
H1259       H  0.78689584  0.66211094  0.08979925     0.19100
H1260       H  0.90938605  0.82864937  0.10012328     0.19100
C1261       C  0.66215762  0.63857575  0.12895309    -0.06700
C1262       C  0.64653610  0.65346756  0.14309139    -0.17800
C1263       C  0.65454701  0.64394536  0.15976955     0.10500
C1264       C  0.67932760  0.61944039  0.16255063    -0.06600
C1265       C  0.69549087  0.60503376  0.14854235    -0.17900
C1266       C  0.68621002  0.61307633  0.13187748     0.10500
S1267       S  0.63187626  0.66356256  0.17694837    -0.32800
S1268       S  0.70262852  0.58617125  0.11517105    -0.32800
H1269       H  0.65936954  0.56845392  0.10641963     0.28500
H1270       H  0.66494430  0.66729219  0.18921124     0.28500
H1271       H  0.62815890  0.67301882  0.14118319     0.19100
H1272       H  0.71290025  0.58457377  0.15062540     0.19100
C1273       C  0.82893651  0.62809695  0.93097133    -0.06700
C1274       C  0.81173519  0.65965124  0.92899849    -0.17800
C1275       C  0.76501758  0.64649301  0.93292394     0.10500
C1276       C  0.73436647  0.60091151  0.93932343    -0.06600
C1277       C  0.75074877  0.56877994  0.94102589    -0.17900
C1278       C  0.79764016  0.58180679  0.93694166     0.10500
S1279       S  0.74682494  0.68974369  0.92973493    -0.32800
S1280       S  0.81541180  0.53851994  0.94050490    -0.32800
H1281       H  0.86230278  0.57106143  0.94494591     0.28500
H1282       H  0.69904940  0.65717740  0.92627553     0.28500
H1283       H  0.83464014  0.69481873  0.92397796     0.19100
H1284       H  0.72735940  0.53393358  0.94622016     0.19100
C1285       C  0.64436996  0.61071527  0.98815406    -0.06700
C1286       C  0.66815175  0.65974992  0.99079608    -0.17800
C1287       C  0.67508350  0.67898317  0.00718789     0.10500
C1288       C  0.65940379  0.64861737  0.02156639    -0.06600
C1289       C  0.63449038  0.59934690  0.01875420    -0.17900
C1290       C  0.62680946  0.58020242  0.00228566     0.10500
S1291       S  0.70302898  0.74231327  0.00865192    -0.32800
S1292       S  0.59751699  0.51688773  0.99951067    -0.32800
H1293       H  0.58469567  0.50465554  0.01665723     0.28500
H1294       H  0.66805184  0.74059894  0.01958125     0.28500
H1295       H  0.68154031  0.68331858  0.97991779     0.20900
H1296       H  0.62197174  0.57552331  0.02953191     0.19100
C1297       C  0.15834251  0.41060875  0.05228601    -0.06700
C1298       C  0.16691433  0.37474549  0.04687617    -0.17800
C1299       C  0.21275624  0.38417675  0.04319254     0.10500
C1300       C  0.25115865  0.43110408  0.04408061    -0.06600
C1301       C  0.24257722  0.46720523  0.04929542    -0.17900
C1302       C  0.19673432  0.45741345  0.05349744     0.10500
S1303       S  0.22022844  0.33424766  0.03850815    -0.32800
S1304       S  0.18929657  0.50606521  0.06012577    -0.32800
H1305       H  0.14221779  0.48586990  0.05458956     0.28500
H1306       H  0.26580619  0.35372907  0.04559203     0.28500
H1307       H  0.13806906  0.33841930  0.04667056     0.19100
H1308       H  0.27164797  0.50339615  0.04980301     0.19100
C1309       C  0.51269720  0.57349212  0.06977866    -0.06700
C1310       C  0.47957229  0.58752838  0.06549752    -0.17800
C1311       C  0.43861310  0.55845366  0.05623012     0.10500
C1312       C  0.42828232  0.51264231  0.05152395    -0.06600
C1313       C  0.46032291  0.49760871  0.05604514    -0.17900
C1314       C  0.50202419  0.52714224  0.06517065     0.10500
S1315       S  0.40287561  0.58360729  0.04972352    -0.32800
S1316       S  0.53971114  0.50331570  0.07030224    -0.32800
H1317       H  0.54463941  0.51718690  0.08748903     0.28500
H1318       H  0.39141878  0.56208017  0.03358545     0.28500
H1319       H  0.48656967  0.62272313  0.06859172     0.19100
H1320       H  0.45264844  0.46243162  0.05250091     0.19100
C1321       C  0.27031157  0.18571525  0.88629071    -0.06700
C1322       C  0.22238567  0.15035719  0.88714262    -0.17800
C1323       C  0.20766744  0.10382550  0.88212607     0.10500
C1324       C  0.24199479  0.09195169  0.87708049    -0.06600
C1325       C  0.28997720  0.12716372  0.87690592    -0.17900
C1326       C  0.30430203  0.17373661  0.88109096     0.10500
S1327       S  0.14499650  0.06199759  0.88202628    -0.32800
S1328       S  0.36690396  0.21560859  0.88073297    -0.32800
H1329       H  0.36232128  0.24710482  0.86978087     0.28500
H1330       H  0.14578020  0.03654431  0.86772667     0.28500
H1331       H  0.19631367  0.15921297  0.89157525     0.19100
H1332       H  0.31660946  0.11836592  0.87313239     0.19100
C1333       C  0.55705489  0.51826519  0.93537681    -0.06700
C1334       C  0.55392600  0.47947107  0.92650519    -0.17800
C1335       C  0.51358883  0.44848394  0.91713439     0.10500
C1336       C  0.47345982  0.45452247  0.91719983    -0.06600
C1337       C  0.47670478  0.49374899  0.92583284    -0.17900
C1338       C  0.51804692  0.52603780  0.93453022     0.10500
S1339       S  0.51505883  0.40233953  0.90486219    -0.32800
S1340       S  0.51888010  0.57705774  0.94363790    -0.32800
H1341       H  0.56718876  0.60825977  0.94037039     0.28500
H1342       H  0.56201871  0.41453134  0.90852545     0.28500
H1343       H  0.58338080  0.47305364  0.92704013     0.19100
H1344       H  0.44657085  0.49924790  0.92594497     0.19100
C1345       C  0.32700059  0.38711635  0.96448663    -0.06700
C1346       C  0.34536601  0.43572692  0.96732812    -0.17800
C1347       C  0.35665827  0.45496243  0.98370651     0.10500
C1348       C  0.34977180  0.42525073  0.99772335    -0.06600
C1349       C  0.33326157  0.37714047  0.99493066    -0.17900
C1350       C  0.32177187  0.35778054  0.97855390     0.10500
S1351       S  0.37628298  0.51693705  0.98605685    -0.32800
S1352       S  0.30162441  0.29578261  0.97647265    -0.32800
H1353       H  0.25582450  0.28481919  0.97146974     0.28500
H1354       H  0.40765826  0.52488675  0.99952628     0.28500
H1355       H  0.35015993  0.45896129  0.95672147     0.19100
H1356       H  0.32715627  0.35405253  0.00572042     0.19100
C1357       C  0.09312057  0.62230928  0.78105471    -0.06700
C1358       C  0.04856289  0.58503691  0.78605311    -0.17800
C1359       C  0.03435385  0.53812529  0.78242169     0.10500
C1360       C  0.06276993  0.52741715  0.77176720    -0.06600
C1361       C  0.10775785  0.56445346  0.76691772    -0.17900
C1362       C  0.12378326  0.61132308  0.77190117     0.10500
S1363       S  0.98011897  0.49398873  0.79235170    -0.32800
S1364       S  0.18402105  0.65470704  0.76665107    -0.32800
H1365       H  0.19266214  0.68063200  0.78181719     0.28500
H1366       H  0.99696049  0.46262205  0.79559287     0.28500
H1367       H  0.02463789  0.59231107  0.79329857     0.19100
H1368       H  0.13052652  0.55706416  0.75902399     0.19100
C1369       C  0.85408873  0.25943106  0.73294366    -0.06700
C1370       C  0.84788950  0.21926223  0.72413367    -0.17800
C1371       C  0.80616936  0.18981487  0.71514962     0.10500
C1372       C  0.77001222  0.20164265  0.71408503    -0.06600
C1373       C  0.77552911  0.24093598  0.72329775    -0.17900
C1374       C  0.81638845  0.26921845  0.73289060     0.10500
S1375       S  0.80102929  0.13705716  0.70579798    -0.32800
S1376       S  0.81927407  0.31910284  0.74370692    -0.32800
H1377       H  0.82449644  0.30350445  0.75983662     0.28500
H1378       H  0.75165891  0.10937738  0.70787387     0.28500
H1379       H  0.87582894  0.21052561  0.72428239     0.19100
H1380       H  0.74813187  0.25040986  0.72272580     0.19100
C1381       C  0.01118397  0.33925367  0.69079858    -0.06700
C1382       C  0.99040365  0.28997724  0.68887833    -0.17800
C1383       C  0.98156547  0.26872200  0.67276903     0.10500
C1384       C  0.99296452  0.29697349  0.65798486    -0.06600
C1385       C  0.01280136  0.34599919  0.65978501    -0.17900
C1386       C  0.02148954  0.36729839  0.67590380     0.10500
S1387       S  0.95693482  0.20550861  0.67202566    -0.32800
S1388       S  0.04860844  0.43061579  0.67651230    -0.32800
H1389       H  0.00841363  0.42887204  0.68388220     0.28500
H1390       H  0.98019796  0.20437529  0.65712600     0.28500
H1391       H  0.98142708  0.26765146  0.70005922     0.19100
H1392       H  0.02254518  0.36802020  0.64849234     0.19100
C1393       C  0.00439383  0.29193917  0.83057585    -0.06700
C1394       C  0.97737825  0.25726285  0.81839069    -0.17800
C1395       C  0.96750654  0.26898182  0.80239824     0.10500
C1396       C  0.98705360  0.31697056  0.79776097    -0.06600
C1397       C  0.01542934  0.35195067  0.80972660    -0.17900
C1398       C  0.02369275  0.34004021  0.82609192     0.10500
S1399       S  0.92709661  0.22065384  0.78904514    -0.32800
S1400       S  0.05751764  0.38773663  0.84071997    -0.32800
H1401       H  0.03186678  0.36360200  0.85533819     0.28500
H1402       H  0.90190809  0.24290274  0.78367918     0.28500
H1403       H  0.96219406  0.22025808  0.82161346     0.19100
H1404       H  0.03100282  0.38894287  0.80636916     0.19100
C1405       C  0.09600180  0.28012378  0.88085797    -0.06700
C1406       C  0.12037043  0.32385834  0.88925443    -0.17800
C1407       C  0.15997676  0.33555372  0.89963295     0.10500
C1408       C  0.17673014  0.30320910  0.90149975    -0.06600
C1409       C  0.15179359  0.25940219  0.89299849    -0.17900
C1410       C  0.11240858  0.24783399  0.88272268     0.10500
S1411       S  0.18649956  0.39174411  0.91032876    -0.32800
S1412       S  0.08524542  0.19146655  0.87199720    -0.32800
H1413       H  0.06971367  0.20580744  0.85769382     0.28500
H1414       H  0.19141696  0.37352904  0.92594755     0.28500
H1415       H  0.10752639  0.34855871  0.88813347     0.19100
H1416       H  0.16390701  0.23407764  0.89384163     0.19100
C1417       C  0.23229992  0.44606845  0.77609153    -0.06700
C1418       C  0.23195002  0.44380179  0.75816691    -0.17800
C1419       C  0.18969004  0.42647806  0.74885877     0.10500
C1420       C  0.14641473  0.41052063  0.75758815    -0.06600
C1421       C  0.14688875  0.41335746  0.77544433    -0.17900
C1422       C  0.18908386  0.43194457  0.78469825     0.10500
S1423       S  0.19318624  0.42397456  0.72600964    -0.32800
S1424       S  0.18533061  0.43923844  0.80732656    -0.32800
H1425       H  0.23011749  0.48015429  0.80873659     0.28500
H1426       H  0.14919392  0.38239802  0.72401217     0.28500
H1427       H  0.26468927  0.45447290  0.75136864     0.19100
H1428       H  0.11414209  0.40271241  0.78225246     0.19100
C1429       C  0.32194567  0.42377765  0.82371928    -0.06700
C1430       C  0.28844820  0.41730701  0.83615426    -0.17800
C1431       C  0.28916116  0.39994917  0.85231226     0.10500
C1432       C  0.32591454  0.39057863  0.85679002    -0.06600
C1433       C  0.35843382  0.39530788  0.84405882    -0.17900
C1434       C  0.35630718  0.41081843  0.82757635     0.10500
S1435       S  0.24122142  0.39021879  0.86624552    -0.32800
S1436       S  0.39775482  0.41223708  0.81203486    -0.32800
H1437       H  0.36876727  0.40504862  0.79780387     0.28500
H1438       H  0.23047250  0.34400934  0.87038225     0.28500
H1439       H  0.26160535  0.42663364  0.83334807     0.19100
H1440       H  0.38601778  0.38712158  0.84693783     0.19100
C1441       C  0.55480642  0.53091141  0.72519903    -0.06700
C1442       C  0.56774849  0.51707525  0.71022858    -0.17800
C1443       C  0.54163849  0.47042890  0.70441403     0.10500
C1444       C  0.50043307  0.43743833  0.71335068    -0.06600
C1445       C  0.48907184  0.45081751  0.72877577    -0.17900
C1446       C  0.51650944  0.49676107  0.73497519     0.10500
S1447       S  0.56299622  0.45491868  0.68570394    -0.32800
S1448       S  0.50137467  0.50951158  0.75553568    -0.32800
H1449       H  0.54836627  0.53197491  0.76141931     0.28500
H1450       H  0.54366505  0.40691779  0.68995081     0.28500
H1451       H  0.59847868  0.54262954  0.70311049     0.19100
H1452       H  0.45809020  0.42557564  0.73587741     0.19100
C1453       C  0.49826957  0.61572759  0.76788235    -0.06700
C1454       C  0.49145966  0.61522898  0.78549985    -0.17800
C1455       C  0.44633224  0.58736081  0.79267823     0.10500
C1456       C  0.40783205  0.55625668  0.78212970    -0.06600
C1457       C  0.41466015  0.55918266  0.76441823    -0.17900
C1458       C  0.45877975  0.58944049  0.75722219     0.10500
S1459       S  0.44036578  0.59418432  0.81518591    -0.32800
S1460       S  0.46332407  0.58872859  0.73437475    -0.32800
H1461       H  0.48745904  0.63817794  0.73274747     0.28500
H1462       H  0.39203015  0.58031568  0.81450298     0.28500
H1463       H  0.52145101  0.63653482  0.79369102     0.19100
H1464       H  0.38602217  0.53601486  0.75602789     0.19100
C1465       C  0.83178262  0.78141331  0.87739721    -0.06700
C1466       C  0.87975317  0.81401904  0.88024986    -0.17800
C1467       C  0.91167113  0.79887842  0.88470404     0.10500
C1468       C  0.89521838  0.74988812  0.88648907    -0.06600
C1469       C  0.84675929  0.71767443  0.88374126    -0.17900
C1470       C  0.81509593  0.73281842  0.87945488     0.10500
S1471       S  0.97280356  0.84373134  0.88717568    -0.32800
S1472       S  0.75359672  0.68825136  0.87686088    -0.32800
H1473       H  0.73484086  0.71668397  0.88208346     0.28500
H1474       H  0.98922307  0.81875601  0.87754801     0.28500
H1475       H  0.89269755  0.85135008  0.87838805     0.19100
H1476       H  0.83270068  0.68011621  0.88546613     0.19100
C1477       C  0.73827886  0.78307235  0.82846168    -0.06700
C1478       C  0.77235219  0.79846516  0.81544855    -0.17800
C1479       C  0.76095815  0.77886346  0.79909015     0.10500
C1480       C  0.71377553  0.74344813  0.79533157    -0.06600
C1481       C  0.67932817  0.72992628  0.80825072    -0.17900
C1482       C  0.69113001  0.74851149  0.82470913     0.10500
S1483       S  0.80901888  0.79929249  0.78406978    -0.32800
S1484       S  0.64487469  0.72423706  0.84052472    -0.32800
H1485       H  0.67335833  0.72220995  0.85354943     0.28500
H1486       H  0.80007554  0.75344089  0.78032245     0.28500
H1487       H  0.80875568  0.82459250  0.81829538     0.19100
H1488       H  0.64286390  0.70344122  0.80572064     0.19100
C1489       C  0.43725350  0.96943411  0.76986620    -0.06700
C1490       C  0.48532541  0.00174552  0.77243215    -0.17800
C1491       C  0.51665344  0.98640364  0.77698921     0.10500
C1492       C  0.49937829  0.93772149  0.77948280    -0.06600
C1493       C  0.45108621  0.90530897  0.77717124    -0.17900
C1494       C  0.41977031  0.92075556  0.77238341     0.10500
S1495       S  0.57848167  0.03048166  0.77892830    -0.32800
S1496       S  0.35808368  0.87707105  0.76997156    -0.32800
H1497       H  0.34031216  0.90780878  0.77273609     0.28500
H1498       H  0.59614035  0.00103184  0.77380090     0.28500
H1499       H  0.49901266  0.03900984  0.76997030     0.19100
H1500       H  0.43764942  0.86802671  0.77946242     0.19100
C1501       C  0.62679448  0.80778335  0.75226274    -0.06700
C1502       C  0.57801466  0.78900029  0.75485795    -0.17800
C1503       C  0.56085514  0.81161915  0.76539235     0.10500
C1504       C  0.59288691  0.85545059  0.77294891    -0.06600
C1505       C  0.64157228  0.87515070  0.76989567    -0.17900
C1506       C  0.65892269  0.85171244  0.75977597     0.10500
S1507       S  0.49803511  0.78093396  0.76964101    -0.32800
S1508       S  0.72198740  0.87884534  0.75621826    -0.32800
H1509       H  0.73594510  0.91667428  0.76763857     0.28500
H1510       H  0.50179636  0.79729334  0.78644841     0.28500
H1511       H  0.55311646  0.75474941  0.74959376     0.19100
H1512       H  0.66598536  0.90913315  0.77544687     0.19100
C1513       C  0.76959223  0.87518877  0.60957512    -0.06700
C1514       C  0.77330208  0.88507821  0.59199957    -0.17800
C1515       C  0.76709653  0.92152402  0.58552490     0.10500
C1516       C  0.75096790  0.94492960  0.59638084    -0.06600
C1517       C  0.74992055  0.93732708  0.61393055    -0.17900
C1518       C  0.76246869  0.90547771  0.62068164     0.10500
S1519       S  0.77930446  0.93579918  0.56329112    -0.32800
S1520       S  0.77172846  0.90797690  0.64340451    -0.32800
H1521       H  0.80628588  0.89429639  0.64265301     0.28500
H1522       H  0.80428335  0.98490662  0.56594313     0.28500
H1523       H  0.78043260  0.86412903  0.58310873     0.19100
H1524       H  0.73990814  0.95682088  0.62244794     0.19100
C1525       C  0.72852366  0.75382492  0.65446578    -0.06700
C1526       C  0.67937021  0.73113895  0.65706347    -0.17800
C1527       C  0.65990448  0.72104060  0.67352076     0.10500
C1528       C  0.69008872  0.73318162  0.68786049    -0.06600
C1529       C  0.73921634  0.75506909  0.68517954    -0.17900
C1530       C  0.75868397  0.76591572  0.66877341     0.10500
S1531       S  0.59666717  0.69549367  0.67532243    -0.32800
S1532       S  0.82242083  0.79690406  0.66704637    -0.32800
H1533       H  0.82543713  0.82688953  0.65367131     0.28500
H1534       H  0.59884932  0.72349627  0.68927764     0.28500
H1535       H  0.65609195  0.72277710  0.64619210     0.19100
H1536       H  0.76283742  0.76439655  0.69600512     0.19100
C1537       C  0.89752316  0.52376386  0.71161358    -0.06700
C1538       C  0.94251269  0.54637792  0.71897041    -0.17800
C1539       C  0.96284114  0.52067674  0.72524147     0.10500
C1540       C  0.93759876  0.47067117  0.72396180    -0.06600
C1541       C  0.89149417  0.44790996  0.71723210    -0.17900
C1542       C  0.87137213  0.47393924  0.71084160     0.10500
S1543       S  0.02033757  0.55279498  0.73528903    -0.32800
S1544       S  0.81271077  0.44139920  0.70182213    -0.32800
H1545       H  0.81466345  0.47764057  0.69165133     0.28500
H1546       H  0.02490110  0.59790396  0.73494368     0.28500
H1547       H  0.96211111  0.58463793  0.71947041     0.19100
H1548       H  0.87154017  0.40968405  0.71651518     0.19100
C1549       C  0.76245691  0.65007525  0.73352389    -0.06700
C1550       C  0.80666203  0.68333114  0.72668648    -0.17800
C1551       C  0.83514682  0.66949454  0.71790974     0.10500
C1552       C  0.81859303  0.62094032  0.71509608    -0.06600
C1553       C  0.77487806  0.58758239  0.72226178    -0.17900
C1554       C  0.74711955  0.60144991  0.73157187     0.10500
S1555       S  0.89270955  0.71570064  0.71109191    -0.32800
S1556       S  0.69093459  0.55530594  0.73934447    -0.32800
H1557       H  0.70013661  0.57157520  0.75624906     0.28500
H1558       H  0.91562423  0.68959168  0.71394552     0.28500
H1559       H  0.81921643  0.72073436  0.72818305     0.19100
H1560       H  0.76179703  0.55020912  0.72035124     0.19100
C1561       C  0.82883106  0.11696434  0.89175183    -0.06700
C1562       C  0.83747988  0.11463940  0.87443313    -0.17800
C1563       C  0.88242042  0.14442196  0.86733682     0.10500
C1564       C  0.91878807  0.17953391  0.87763525    -0.06600
C1565       C  0.91039353  0.18008230  0.89514000    -0.17900
C1566       C  0.86654424  0.14835722  0.90233897     0.10500
S1567       S  0.89310397  0.13576828  0.84538019    -0.32800
S1568       S  0.86059949  0.15113506  0.92504728    -0.32800
H1569       H  0.83351994  0.10199367  0.92734875     0.28500
H1570       H  0.84776640  0.09730181  0.84195274     0.28500
H1571       H  0.80886239  0.08953977  0.86648035     0.19100
H1572       H  0.93791484  0.20608111  0.90328702     0.19100
C1573       C  0.76031986  0.18305142  0.93466910    -0.06700
C1574       C  0.80011923  0.21235240  0.92474409    -0.17800
C1575       C  0.83268916  0.25796400  0.92998763     0.10500
C1576       C  0.82416424  0.27557824  0.94514600    -0.06600
C1577       C  0.78315950  0.24675499  0.95476881    -0.17900
C1578       C  0.75097453  0.20053539  0.94964782     0.10500
S1579       S  0.88587394  0.29028350  0.91744225    -0.32800
S1580       S  0.70029031  0.16534590  0.96307111    -0.32800
H1581       H  0.67101803  0.13359734  0.95050924     0.28500
H1582       H  0.91642363  0.31123306  0.93137558     0.28500
H1583       H  0.80696554  0.19879679  0.91316305     0.19100
H1584       H  0.77667626  0.26013351  0.96645748     0.19100
C1585       C  0.73279841  0.85818162  0.88412521    -0.06700
C1586       C  0.76540917  0.89782986  0.89349925    -0.17800
C1587       C  0.75120854  0.92518803  0.90288892     0.10500
C1588       C  0.70315796  0.91361499  0.90249596    -0.06600
C1589       C  0.67034622  0.87288768  0.89365719    -0.17900
C1590       C  0.68427770  0.84447439  0.88497992     0.10500
S1591       S  0.79565939  0.97617701  0.91430718    -0.32800
S1592       S  0.63802660  0.79019393  0.87599921    -0.32800
H1593       H  0.66126844  0.76446797  0.87903646     0.28500
H1594       H  0.83354599  0.96787498  0.91172866     0.28500
H1595       H  0.80258240  0.90829296  0.89301239     0.19100
H1596       H  0.63319826  0.86275894  0.89362627     0.19100
C1597       C  0.62123941  0.98089027  0.85986664    -0.06700
C1598       C  0.57428549  0.94490896  0.85695730    -0.17800
C1599       C  0.56027724  0.92162721  0.84134029     0.10500
C1600       C  0.59331185  0.93534024  0.82789915    -0.06600
C1601       C  0.64065773  0.96946373  0.83088371    -0.17900
C1602       C  0.65523304  0.99153319  0.84678025     0.10500
S1603       S  0.49937289  0.87520263  0.83922209    -0.32800
S1604       S  0.71763473  0.03191057  0.84944050    -0.32800
H1605       H  0.72006971  0.01247609  0.86515577     0.28500
H1606       H  0.50778041  0.84991385  0.82653864     0.28500
H1607       H  0.54784261  0.93483185  0.86689197     0.19100
H1608       H  0.66625313  0.97980969  0.82062064     0.19100
C1609       C  0.38622563  0.24842531  0.93716845    -0.06700
C1610       C  0.43502633  0.26500982  0.93570652    -0.17800
C1611       C  0.45479939  0.23810408  0.94161384     0.10500
C1612       C  0.42486125  0.19249994  0.94839437    -0.06600
C1613       C  0.37597017  0.17576435  0.94948664    -0.17900
C1614       C  0.35658143  0.20324471  0.94419370     0.10500
S1615       S  0.51825648  0.26440709  0.94051751    -0.32800
S1616       S  0.29320273  0.17705813  0.94532308    -0.32800
H1617       H  0.29525648  0.21422896  0.95494937     0.28500
H1618       H  0.52269572  0.24350460  0.95553143     0.28500
H1619       H  0.45790166  0.29930671  0.93002001     0.19100
H1620       H  0.35256696  0.14079720  0.95458109     0.19100
C1621       C  0.55730493  0.06148204  0.92368087    -0.06700
C1622       C  0.57647975  0.11043552  0.92581472    -0.17800
C1623       C  0.55324582  0.12875506  0.93559424     0.10500
C1624       C  0.50867024  0.09778877  0.94304824    -0.06600
C1625       C  0.48910187  0.04892183  0.94066445    -0.17900
C1626       C  0.51257567  0.03057235  0.93107711     0.10500
S1627       S  0.58408008  0.19172043  0.93909520    -0.32800
S1628       S  0.48281769  0.96735699  0.92843183    -0.32800
H1629       H  0.50050842  0.96871463  0.91196886     0.28500
H1630       H  0.56687992  0.18944830  0.95570267     0.28500
H1631       H  0.61123747  0.13460482  0.92068261     0.19100
H1632       H  0.45484128  0.02476521  0.94617351     0.19100
C1633       C  0.59584503  0.78463040  0.05219957    -0.06700
C1634       C  0.54745694  0.76965476  0.05367139    -0.17800
C1635       C  0.52963195  0.79870083  0.04836090     0.10500
C1636       C  0.56125868  0.84473925  0.04227590    -0.06600
C1637       C  0.60976896  0.85988384  0.04129158    -0.17900
C1638       C  0.62718016  0.83031975  0.04591427     0.10500
S1639       S  0.46642969  0.77439005  0.04917582    -0.32800
S1640       S  0.69030802  0.85439527  0.04490047    -0.32800
H1641       H  0.68690118  0.81906121  0.03383287     0.28500
H1642       H  0.46388708  0.79741752  0.03442904     0.28500
H1643       H  0.52338269  0.73491370  0.05881894     0.19100
H1644       H  0.63447052  0.89528420  0.03682339     0.19100
C1645       C  0.57054528  0.95229001  0.99688065    -0.06700
C1646       C  0.54604362  0.92740933  0.98235085    -0.17800
C1647       C  0.56831898  0.93714114  0.96645362     0.10500
C1648       C  0.61653316  0.97325477  0.96487548    -0.06600
C1649       C  0.64010022  0.99964418  0.97942684    -0.17900
C1650       C  0.61774021  0.98948018  0.99532577     0.10500
S1651       S  0.53298661  0.90126818  0.94895781    -0.32800
S1652       S  0.65226491  0.02303597  0.01339002    -0.32800
H1653       H  0.61403747  0.02003898  0.02267810     0.28500
H1654       H  0.56057055  0.87953556  0.94690724     0.28500
H1655       H  0.51007317  0.89825382  0.98359423     0.19100
H1656       H  0.67661600  0.02779854  0.97855046     0.19100
C1657       C  0.91108252  0.20539868  0.38320502    -0.06700
C1658       C  0.92516368  0.17162103  0.38615912    -0.17800
C1659       C  0.89717544  0.12439256  0.38096981     0.10500
C1660       C  0.85271095  0.10944783  0.37330708    -0.06600
C1661       C  0.83940194  0.14340412  0.36992888    -0.17900
C1662       C  0.86841122  0.19090861  0.37413602     0.10500
S1663       S  0.92095728  0.08570005  0.38407917    -0.32800
S1664       S  0.84809519  0.23043370  0.36736925    -0.32800
H1665       H  0.89242549  0.26399629  0.36063692     0.28500
H1666       H  0.90012395  0.05828962  0.36944897     0.28500
H1667       H  0.95815771  0.18184676  0.39268218     0.19100
H1668       H  0.80584746  0.13286578  0.36377881     0.19100
C1669       C  0.83868285  0.26520237  0.42926184    -0.06700
C1670       C  0.81958290  0.21610889  0.43092827    -0.17800
C1671       C  0.77261320  0.18637181  0.43554952     0.10500
C1672       C  0.74359040  0.20568808  0.43924070    -0.06600
C1673       C  0.76120973  0.25414957  0.43685758    -0.17900
C1674       C  0.80832856  0.28415071  0.43179944     0.10500
S1675       S  0.75183260  0.12384150  0.43677087    -0.32800
S1676       S  0.82735516  0.34590753  0.42954926    -0.32800
H1677       H  0.86913261  0.36037674  0.43871747     0.28500
H1678       H  0.70445244  0.10896170  0.43265930     0.28500
H1679       H  0.84115264  0.20021082  0.42832816     0.19100
H1680       H  0.73879174  0.26899092  0.43970842     0.19100
C1681       C  0.07455875  0.59586762  0.26667607    -0.06700
C1682       C  0.04341575  0.54850323  0.27133247    -0.17800
C1683       C  0.05994686  0.51907665  0.27715521     0.10500
C1684       C  0.10906286  0.53693971  0.27874719    -0.06600
C1685       C  0.14059634  0.58389813  0.27405170    -0.17900
C1686       C  0.12402466  0.61364739  0.26820795     0.10500
S1687       S  0.01629142  0.45869948  0.28216786    -0.32800
S1688       S  0.16790959  0.67404788  0.26368466    -0.32800
H1689       H  0.14311545  0.69273333  0.27219846     0.28500
H1690       H  0.04463074  0.43906802  0.27783309     0.28500
H1691       H  0.00552974  0.53345326  0.27000836     0.19100
H1692       H  0.17830404  0.59794778  0.27554062     0.19100
C1693       C  0.11202483  0.44887073  0.32946982    -0.06700
C1694       C  0.07912674  0.40089400  0.33200474    -0.17800
C1695       C  0.05485104  0.38453645  0.34748504     0.10500
C1696       C  0.06205059  0.41714971  0.36068715    -0.06600
C1697       C  0.09701728  0.46477318  0.35838517    -0.17900
C1698       C  0.12235710  0.48073167  0.34310200     0.10500
S1699       S  0.01619295  0.32158085  0.34955741    -0.32800
S1700       S  0.16726313  0.54228380  0.34169935    -0.32800
H1701       H  0.19535301  0.53605912  0.32954014     0.28500
H1702       H  0.03185648  0.31934215  0.36605275     0.28500
H1703       H  0.07142318  0.37607685  0.32167436     0.19100
H1704       H  0.10438359  0.49009127  0.36849384     0.19100
C1705       C  0.22231024  0.17068473  0.37557817    -0.06700
C1706       C  0.23722238  0.17684525  0.39259476    -0.17800
C1707       C  0.25403721  0.14916691  0.39982717     0.10500
C1708       C  0.25904048  0.11641454  0.38963472    -0.06600
C1709       C  0.24251053  0.10859267  0.37285448    -0.17900
C1710       C  0.22267419  0.13420377  0.36589364     0.10500
S1711       S  0.26979987  0.15840813  0.42202091    -0.32800
S1712       S  0.19754140  0.11777461  0.34483744    -0.32800
H1713       H  0.16372309  0.13196593  0.34717703     0.28500
H1714       H  0.24957686  0.11011765  0.42584258     0.28500
H1715       H  0.23696020  0.20424901  0.40026165     0.19100
H1716       H  0.24484233  0.08227014  0.36518854     0.19100
C1717       C  0.10864027  0.31550956  0.40071834    -0.06700
C1718       C  0.08685923  0.26640642  0.39838730    -0.17800
C1719       C  0.10725865  0.24649983  0.38802916     0.10500
C1720       C  0.15177761  0.27603339  0.38025975    -0.06600
C1721       C  0.17413353  0.32503283  0.38298629    -0.17900
C1722       C  0.15325997  0.34498713  0.39306189     0.10500
S1723       S  0.07274041  0.18369149  0.38427903    -0.32800
S1724       S  0.18594730  0.40821171  0.39587822    -0.32800
H1725       H  0.17059872  0.40716301  0.41270779     0.28500
H1726       H  0.08880894  0.18553870  0.36751715     0.28500
H1727       H  0.05209859  0.24344238  0.40378518     0.19100
H1728       H  0.20864012  0.34801810  0.37742345     0.19100
C1729       C  0.50108242  0.60841368  0.27968800    -0.06700
C1730       C  0.45964540  0.57725918  0.28874059    -0.17800
C1731       C  0.43006130  0.53061255  0.28334151     0.10500
C1732       C  0.44178128  0.51505294  0.26835412    -0.06600
C1733       C  0.48232214  0.54623883  0.25910945    -0.17900
C1734       C  0.51260466  0.59220249  0.26476099     0.10500
S1735       S  0.37895717  0.49325324  0.29635274    -0.32800
S1736       S  0.56654688  0.62694652  0.25286565    -0.32800
H1737       H  0.59504230  0.64883593  0.26719055     0.28500
H1738       H  0.36259858  0.45042195  0.28763112     0.28500
H1739       H  0.45056445  0.58926439  0.30024362     0.19100
H1740       H  0.49108786  0.53422950  0.24753316     0.19100
C1741       C  0.59541093  0.50280886  0.20856207    -0.06700
C1742       C  0.58805910  0.50353143  0.22615091    -0.17800
C1743       C  0.54376479  0.47386978  0.23347863     0.10500
C1744       C  0.50485982  0.44447082  0.22297016    -0.06600
C1745       C  0.51230947  0.44188236  0.20555779    -0.17900
C1746       C  0.55743873  0.46923122  0.19836907     0.10500
S1747       S  0.53870570  0.47729029  0.25620951    -0.32800
S1748       S  0.56420623  0.45844730  0.17629177    -0.32800
H1749       H  0.61230058  0.47171556  0.17761412     0.28500
H1750       H  0.50905146  0.42843554  0.25854770     0.28500
H1751       H  0.61654208  0.52845110  0.23422459     0.19100
H1752       H  0.48283294  0.41834615  0.19753628     0.19100
C1753       C  0.18938385  0.44028401  0.27489881    -0.06700
C1754       C  0.22964116  0.47112780  0.26534013    -0.17800
C1755       C  0.25467865  0.45460310  0.25572663     0.10500
C1756       C  0.24016568  0.40582614  0.25582981    -0.06600
C1757       C  0.19942814  0.37498133  0.26522056    -0.17900
C1758       C  0.17354847  0.39129653  0.27437656     0.10500
S1759       S  0.30657615  0.49822784  0.24463177    -0.32800
S1760       S  0.11990782  0.34731159  0.28464728    -0.32800
H1761       H  0.09466781  0.37124419  0.28202789     0.28500
H1762       H  0.28926357  0.47741405  0.22862217     0.28500
H1763       H  0.24223619  0.50874259  0.26557088     0.19100
H1764       H  0.18733652  0.33747074  0.26539990     0.19100
C1765       C  0.29585294  0.30952121  0.29735463    -0.06700
C1766       C  0.24611365  0.28689382  0.29812508    -0.17800
C1767       C  0.22196791  0.27327695  0.31370554     0.10500
C1768       C  0.24799812  0.28283319  0.32896120    -0.06600
C1769       C  0.29763483  0.30702868  0.32826259    -0.17900
C1770       C  0.32175682  0.32078948  0.31273315     0.10500
S1771       S  0.15810168  0.24215698  0.31319364    -0.32800
S1772       S  0.38532932  0.34913575  0.31336067    -0.32800
H1773       H  0.39135937  0.39243636  0.30740944     0.28500
H1774       H  0.15132359  0.21089341  0.32661179     0.28500
H1775       H  0.22576790  0.27895175  0.28646226     0.19100
H1776       H  0.31775059  0.31399210  0.33994229     0.19100
C1777       C  0.14863232  0.76195689  0.04678460    -0.06700
C1778       C  0.19692460  0.77588141  0.04732609    -0.17800
C1779       C  0.23148348  0.82269216  0.05107764     0.10500
C1780       C  0.21748113  0.85624608  0.05476644    -0.06600
C1781       C  0.16891287  0.84181934  0.05414517    -0.17900
C1782       C  0.13465102  0.79544212  0.05029570     0.10500
S1783       S  0.29257411  0.83781455  0.04981156    -0.32800
S1784       S  0.07362434  0.78138442  0.04985915    -0.32800
H1785       H  0.05394492  0.73341110  0.05415574     0.28500
H1786       H  0.30888496  0.88330100  0.04311514     0.28500
H1787       H  0.20791688  0.75071034  0.04395121     0.19100
H1788       H  0.15706024  0.86657357  0.05714178     0.19100
C1789       C  0.15687111  0.91612563  0.09872989    -0.06700
C1790       C  0.13753160  0.86703428  0.09687389    -0.17800
C1791       C  0.09123892  0.83519063  0.10166469     0.10500
C1792       C  0.06316028  0.85233884  0.10870700    -0.06600
C1793       C  0.08147432  0.90126479  0.11019813    -0.17900
C1794       C  0.12822864  0.93343850  0.10535344     0.10500
S1795       S  0.07072858  0.77298958  0.09913863    -0.32800
S1796       S  0.14994524  0.99529307  0.10904796    -0.32800
H1797       H  0.19582870  0.00608909  0.11384064     0.28500
H1798       H  0.02309931  0.75907156  0.09603405     0.28500
H1799       H  0.15868400  0.85305666  0.09154088     0.19100
H1800       H  0.05994651  0.91430267  0.11590432     0.19100
C1801       C  0.43086185  0.97612808  0.06943732    -0.06700
C1802       C  0.41375467  0.92738020  0.06802559    -0.17800
C1803       C  0.43782281  0.90986838  0.05843256     0.10500
C1804       C  0.48127595  0.94167458  0.05046353    -0.06600
C1805       C  0.49955924  0.99045923  0.05260196    -0.17900
C1806       C  0.47519310  0.00794690  0.06203274     0.10500
S1807       S  0.40901655  0.84671085  0.05575163    -0.32800
S1808       S  0.50313969  0.07116645  0.06441034    -0.32800
H1809       H  0.48621567  0.06940647  0.08104544     0.28500
H1810       H  0.42241407  0.84856219  0.03861502     0.28500
H1811       H  0.37966071  0.90250483  0.07349055     0.19100
H1812       H  0.53336111  0.01526347  0.04692240     0.19100
C1813       C  0.37447915  0.06823674  0.02830308    -0.06700
C1814       C  0.40987646  0.11566711  0.02596295    -0.17800
C1815       C  0.43598710  0.13102485  0.01085654     0.10500
C1816       C  0.42585769  0.09879856  0.99734910    -0.06600
C1817       C  0.39268237  0.05092630  0.99996729    -0.17900
C1818       C  0.36778432  0.03513739  0.01537554     0.10500
S1819       S  0.48126425  0.19250418  0.00946923    -0.32800
S1820       S  0.32917554  0.97233368  0.01779631    -0.32800
H1821       H  0.34452301  0.97114152  0.03444667     0.28500
H1822       H  0.50921292  0.18612125  0.99729364     0.28500
H1823       H  0.41705755  0.14135758  0.03591140     0.19100
H1824       H  0.38515072  0.02583868  0.98976085     0.19100
C1825       C  0.48432563  0.09215365  0.21589520    -0.06700
C1826       C  0.53256101  0.12598168  0.21420034    -0.17800
C1827       C  0.56768531  0.11393939  0.21700855     0.10500
C1828       C  0.55419889  0.06697440  0.22135633    -0.06600
C1829       C  0.50605062  0.03349584  0.22327118    -0.17900
C1830       C  0.47113596  0.04561731  0.22077705     0.10500
S1831       S  0.62875187  0.15978749  0.21479139    -0.32800
S1832       S  0.41027346  0.00017465  0.22404546    -0.32800
H1833       H  0.39346200  0.03089465  0.22837860     0.28500
H1834       H  0.64763329  0.12992387  0.21226221     0.28500
H1835       H  0.54280035  0.16149663  0.21009776     0.19100
H1836       H  0.49561553  0.99792817  0.22741731     0.19100
C1837       C  0.36395420  0.04077037  0.13392950    -0.06700
C1838       C  0.32689097  0.02902950  0.14564265    -0.17800
C1839       C  0.33603181  0.04618573  0.16241580     0.10500
C1840       C  0.38319317  0.07705492  0.16752819    -0.06600
C1841       C  0.41995140  0.08943533  0.15574919    -0.17900
C1842       C  0.41117966  0.07091875  0.13931572     0.10500
S1843       S  0.28632758  0.02635863  0.17670426    -0.32800
S1844       S  0.46238239  0.08542007  0.12634933    -0.32800
H1845       H  0.44430651  0.03910337  0.12018361     0.28500
H1846       H  0.31041169  0.02536844  0.19139598     0.28500
H1847       H  0.29048200  0.00616042  0.14174831     0.19100
H1848       H  0.45632710  0.11254911  0.15964473     0.19100
C1849       C  0.38874466  0.17500500  0.21813705    -0.06700
C1850       C  0.39110591  0.21217787  0.20842695    -0.17800
C1851       C  0.38106113  0.24544797  0.21550344     0.10500
C1852       C  0.36855068  0.24230655  0.23293267    -0.06600
C1853       C  0.36639436  0.20540720  0.24275972    -0.17900
C1854       C  0.37518436  0.17119726  0.23549823     0.10500
S1855       S  0.38599448  0.29142548  0.20144857    -0.32800
S1856       S  0.36550899  0.12213144  0.24879585    -0.32800
H1857       H  0.34991598  0.08863049  0.23558395     0.28500
H1858       H  0.39771169  0.32608594  0.21392424     0.28500
H1859       H  0.40177390  0.21592439  0.19517611     0.19100
H1860       H  0.35582271  0.20205594  0.25600953     0.19100
C1861       C  0.10171192  0.30153973  0.10392875    -0.06700
C1862       C  0.14868834  0.33543592  0.10759515    -0.17800
C1863       C  0.18231873  0.32221151  0.11124952     0.10500
C1864       C  0.16845803  0.27374618  0.11206976    -0.06600
C1865       C  0.12134128  0.23970811  0.10844999    -0.17900
C1866       C  0.08796115  0.25314355  0.10429570     0.10500
S1867       S  0.24289016  0.36897893  0.11383006    -0.32800
S1868       S  0.02833743  0.20709769  0.09976754    -0.32800
H1869       H  0.00644471  0.23291617  0.10472560     0.28500
H1870       H  0.26358809  0.34297942  0.10779182     0.28500
H1871       H  0.16000480  0.37268228  0.10650754     0.19100
H1872       H  0.11026273  0.20248360  0.10925346     0.19100
C1873       C  0.28983096  0.12923972  0.08992631    -0.06700
C1874       C  0.24134637  0.11440305  0.09094873    -0.17800
C1875       C  0.22524831  0.14126680  0.09957042     0.10500
C1876       C  0.25837739  0.18534457  0.10674022    -0.06600
C1877       C  0.30696361  0.20104506  0.10503293    -0.17900
C1878       C  0.32295940  0.17368085  0.09677237     0.10500
S1879       S  0.16210620  0.11540754  0.10212867    -0.32800
S1880       S  0.38610168  0.19792230  0.09514291    -0.32800
H1881       H  0.38468599  0.17778975  0.07916759     0.28500
H1882       H  0.16436087  0.13248036  0.11873943     0.28500
H1883       H  0.21559810  0.08019359  0.08590681     0.19100
H1884       H  0.33279193  0.23504899  0.11021080     0.19100
C1885       C  0.27251194  0.28042258  0.15864672    -0.06700
C1886       C  0.25145214  0.25196376  0.17292521    -0.17800
C1887       C  0.26281963  0.27075360  0.18941370     0.10500
C1888       C  0.29559270  0.31966852  0.19162003    -0.06600
C1889       C  0.31830676  0.34740173  0.17721256    -0.17900
C1890       C  0.30726985  0.32828926  0.16081678     0.10500
S1891       S  0.23572550  0.23124709  0.20729121    -0.32800
S1892       S  0.33752761  0.36710505  0.14312411    -0.32800
H1893       H  0.33302459  0.33180043  0.13180519     0.28500
H1894       H  0.21012539  0.18921967  0.19793095     0.28500
H1895       H  0.22481995  0.21524700  0.17104700     0.19100
H1896       H  0.34429018  0.38450498  0.17867817     0.19100
C1897       C  0.08826021  0.86027002  0.59950806    -0.06700
C1898       C  0.09379701  0.86869541  0.61702501    -0.17800
C1899       C  0.12185643  0.91479372  0.62334703     0.10500
C1900       C  0.14999990  0.95238484  0.61190217    -0.06600
C1901       C  0.14147418  0.94409322  0.59436697    -0.17900
C1902       C  0.10895873  0.89918604  0.58820505     0.10500
S1903       S  0.11855070  0.92530927  0.64580699    -0.32800
S1904       S  0.09642356  0.89357911  0.56574695    -0.32800
H1905       H  0.04710829  0.87122532  0.56806687     0.28500
H1906       H  0.08570500  0.87841920  0.65034946     0.28500
H1907       H  0.07544607  0.83921088  0.62569381     0.19100
H1908       H  0.16074957  0.97232702  0.58529811     0.19100
C1909       C  0.16301658  0.79948073  0.55570559    -0.06700
C1910       C  0.18014834  0.84826277  0.55423409    -0.17800
C1911       C  0.22734707  0.87996416  0.55019747     0.10500
C1912       C  0.25862810  0.86289609  0.54707652    -0.06600
C1913       C  0.24227440  0.81442334  0.54873205    -0.17900
C1914       C  0.19489839  0.78256508  0.55295764     0.10500
S1915       S  0.24540398  0.94191536  0.54913716    -0.32800
S1916       S  0.17697739  0.72082158  0.55356633    -0.32800
H1917       H  0.13494519  0.70722535  0.54460641     0.28500
H1918       H  0.29326966  0.95907075  0.55317203     0.28500
H1919       H  0.15719227  0.86208667  0.55667795     0.19100
H1920       H  0.26592012  0.80110894  0.54591655     0.19100
C1921       C  0.89159966  0.73241805  0.59001768    -0.06700
C1922       C  0.85931768  0.73837644  0.58003145    -0.17800
C1923       C  0.82807261  0.75119353  0.58741430     0.10500
C1924       C  0.83022057  0.76019143  0.60516248    -0.06600
C1925       C  0.86294309  0.75472078  0.61502930    -0.17900
C1926       C  0.89352155  0.74128516  0.60774484     0.10500
S1927       S  0.78469892  0.75281589  0.57363856    -0.32800
S1928       S  0.93550896  0.73832859  0.62185684    -0.32800
H1929       H  0.97230380  0.75412905  0.60990245     0.28500
H1930       H  0.74890253  0.73767957  0.58605644     0.28500
H1931       H  0.85716288  0.73123288  0.56647805     0.19100
H1932       H  0.86560062  0.76219828  0.62856569     0.19100
C1933       C  0.95802821  0.64753261  0.63073158    -0.06700
C1934       C  0.98498175  0.66735358  0.64553678    -0.17800
C1935       C  0.96398231  0.65694049  0.66172735     0.10500
C1936       C  0.91454434  0.62658255  0.66333713    -0.06600
C1937       C  0.88726708  0.60782449  0.64863586    -0.17900
C1938       C  0.90821174  0.61767699  0.63238779     0.10500
S1939       S  0.00252484  0.68193836  0.67989166    -0.32800
S1940       S  0.87028608  0.59210038  0.61405395    -0.32800
H1941       H  0.82673632  0.57081430  0.62276560     0.28500
H1942       H  0.96824709  0.68060174  0.69107587     0.28500
H1943       H  0.02295716  0.69056205  0.64453504     0.19100
H1944       H  0.84958281  0.58382036  0.65000782     0.19100
C1945       C  0.82664803  0.58906370  0.44467796    -0.06700
C1946       C  0.84859524  0.63780386  0.44212361    -0.17800
C1947       C  0.82383797  0.65889965  0.43586034     0.10500
C1948       C  0.77480766  0.63060476  0.43199273    -0.06600
C1949       C  0.75313361  0.58123524  0.43403418    -0.17900
C1950       C  0.77837362  0.56019295  0.44048057     0.10500
S1951       S  0.85832663  0.72211029  0.43312003    -0.32800
S1952       S  0.74654939  0.49692906  0.44341036    -0.32800
H1953       H  0.77704501  0.49430541  0.45539637     0.28500
H1954       H  0.84338870  0.72033039  0.41631806     0.28500
H1955       H  0.88581910  0.65994479  0.44524576     0.19100
H1956       H  0.71594072  0.55890512  0.43102054     0.19100
C1957       C  0.92409661  0.60230209  0.49398659    -0.06700
C1958       C  0.96275602  0.64834990  0.49469389    -0.17800
C1959       C  0.97545026  0.67416146  0.50988850     0.10500
C1960       C  0.94953628  0.65311010  0.52504444    -0.06600
C1961       C  0.91125834  0.60636597  0.52422174    -0.17900
C1962       C  0.89839757  0.58094289  0.50895130     0.10500
S1963       S  0.02381067  0.73416147  0.50866644    -0.32800
S1964       S  0.84819047  0.52172452  0.50925850    -0.32800
H1965       H  0.86302581  0.50459884  0.49556005     0.28500
H1966       H  0.99874616  0.75292998  0.51705149     0.28500
H1967       H  0.98175669  0.66520193  0.48308484     0.19100
H1968       H  0.89123695  0.58905690  0.53560238     0.19100
C1969       C  0.93150472  0.51745091  0.44182119    -0.06700
C1970       C  0.93475417  0.48166562  0.45046818    -0.17800
C1971       C  0.95358047  0.45628161  0.44263912     0.10500
C1972       C  0.96811575  0.46536546  0.42542162    -0.06600
C1973       C  0.96421268  0.50051125  0.41657045    -0.17900
C1974       C  0.94758065  0.52766474  0.42471694     0.10500
S1975       S  0.95659324  0.41074691  0.45465096    -0.32800
S1976       S  0.95092560  0.57661423  0.41294513    -0.32800
H1977       H  0.96087368  0.60626870  0.42716473     0.28500
H1978       H  0.94176891  0.41916570  0.47042849     0.28500
H1979       H  0.92198423  0.47327248  0.46345243     0.19100
H1980       H  0.97608027  0.50819730  0.40345310     0.19100
C1981       C  0.23809632  0.43213300  0.55625573    -0.06700
C1982       C  0.23805462  0.44132936  0.53886248    -0.17800
C1983       C  0.20898169  0.45784185  0.53237699     0.10500
C1984       C  0.17627434  0.46159664  0.54332837    -0.06600
C1985       C  0.17792811  0.45399954  0.56082880    -0.17900
C1986       C  0.20935619  0.44086614  0.56742226     0.10500
S1987       S  0.21672013  0.47486744  0.51021921    -0.32800
S1988       S  0.20894031  0.43330488  0.59014626    -0.32800
H1989       H  0.25842618  0.45607536  0.59170485     0.28500
H1990       H  0.20287270  0.50902569  0.51208653     0.28500
H1991       H  0.26106951  0.43599616  0.53032596     0.19100
H1992       H  0.15357594  0.45689118  0.56944755     0.19100
C1993       C  0.06902362  0.53105505  0.54933192    -0.06700
C1994       C  0.06068406  0.56223577  0.53967314    -0.17800
C1995       C  0.04828056  0.59321850  0.54727941     0.10500
C1996       C  0.04386367  0.59392279  0.56523586    -0.06600
C1997       C  0.05334454  0.56370873  0.57505320    -0.17900
C1998       C  0.06479353  0.53173238  0.56735235     0.10500
S1999       S  0.03983649  0.63161328  0.53303910    -0.32800
S2000       S  0.07021113  0.49074226  0.58124076    -0.32800
H2001       H  0.05140172  0.45300808  0.56959792     0.28500
H2002       H  0.05276481  0.66878105  0.54459918     0.28500
H2003       H  0.06470626  0.56318265  0.52595356     0.19100
H2004       H  0.04948689  0.56330471  0.58876958     0.19100
C2005       C  0.05784333  0.43003329  0.49874695    -0.06700
C2006       C  0.02432860  0.38200550  0.49671801    -0.17800
C2007       C  0.01508607  0.36032080  0.48064555     0.10500
C2008       C  0.04071861  0.38685938  0.46616910    -0.06600
C2009       C  0.07415642  0.43502341  0.46837108    -0.17900
C2010       C  0.08264834  0.45673574  0.48431851     0.10500
S2011       S  0.97274158  0.29812491  0.47971036    -0.32800
S2012       S  0.12821606  0.51803508  0.48565145    -0.32800
H2013       H  0.10561220  0.53030090  0.49819730     0.28500
H2014       H  0.93966710  0.30529424  0.47063701     0.28500
H2015       H  0.00645326  0.36085610  0.50784313     0.19100
H2016       H  0.09381392  0.45636537  0.45751903     0.19100
loop_ 
_geom_bond_atom_site_label_1 
_geom_bond_atom_site_label_2 
_geom_bond_distance 
_geom_bond_site_symmetry_2 
_ccdc_geom_bond_type 
C1            C2   1.410       .  A
C1            C6   1.416       .  A
C1         C1993   1.502       .  S
C2            C3   1.410       .  A
C2            H7   1.083       .  S
C3            C4   1.398       .  A
C3         C1984   1.489       .  S
C4            C5   1.393       .  A
C4            H8   1.083       .  S
C5            C6   1.407       .  A
C5         C2005   1.480       .  S
C6            H9   1.083       .  S
C10          C11   1.412       .  A
C10          C15   1.410       .  A
C10        C1969   1.490       .  S
C11          C12   1.401       .  A
C11          H16   1.084       .  S
C12          C13   1.393       .  A
C12        C1957   1.474       .  S
C13          C14   1.398       .  A
C13          H17   1.084       .  S
C14          C15   1.403       .  A
C14        C1945   1.473       .  S
C15          H18   1.083       .  S
O19         Cr37   2.000       .  S
O19          C27   1.259       .  A
O20         Cr37   1.973       .  S
O20          C21   1.261       .  A
C21        C1921   1.484       .  S
C21          O22   1.274       .  A
O22         Cr38   2.031   1_655  S
O23         Cr38   1.961       .  S
O23          C24   1.256       .  A
C24        C1897   1.477       .  S
C24          O25   1.272       .  A
O25         Cr39   2.029       .  S
O26         Cr39   1.995       .  S
O26          C27   1.259   1_455  A
C27        C1933   1.493       .  S
O28         Cr37   1.969       .  S
O28          C36   1.262   1_655  A
O29         Cr37   2.006       .  S
O29          C30   1.263       .  A
C30        C1960   1.492       .  S
C30          O31   1.256   1_655  A
O31         Cr38   1.979       .  S
O32         Cr38   2.011       .  S
O32          C33   1.268       .  A
C33        C1909   1.487       .  S
C33          O34   1.258       .  A
O34         Cr39   1.974       .  S
O35         Cr39   2.046       .  S
O35          C36   1.279       .  A
C36        C1996   1.492       .  S
Cr37         O40   1.773   1_655  S
Cr38         O40   1.767       .  S
Cr39         O40   1.769       .  S
C41          C42   1.409       .  A
C41          C46   1.413       .  A
C41        C1876   1.490       .  S
C42          C43   1.399       .  A
C42          H47   1.084       .  S
C43          C44   1.393       .  A
C43        C1885   1.470       .  S
C44          C45   1.397       .  A
C44          H48   1.085       .  S
C45          C46   1.408       .  A
C45        C1864   1.480       .  S
C46          H49   1.083       .  S
C50          C51   1.415       .  A
C50          C55   1.413       .  A
C50        C1849   1.495       .  S
C51          C52   1.406       .  A
C51          H56   1.083       .  S
C52          C53   1.395       .  A
C52        C1840   1.482       .  S
C53          C54   1.392       .  A
C53          H57   1.085       .  S
C54          C55   1.404       .  A
C54        C1825   1.474       .  S
C55          H58   1.084       .  S
O59         Cr77   1.976       .  S
O59          C67   1.262       .  A
O60         Cr77   1.992       .  S
O60          C61   1.261       .  A
C61        C1837   1.485       .  S
C61          O62   1.258   1_545  A
O62         Cr78   1.984       .  S
O63         Cr78   1.981       .  S
O63          C64   1.264       .  A
C64        C1789   1.476       .  S
C64          O65   1.265       .  A
O65         Cr79   1.988   1_565  S
O66         Cr79   2.016       .  S
O66          C67   1.269       .  A
C67        C1873   1.483       .  S
O68         Cr77   1.993       .  S
O68          C76   1.261       .  A
O69         Cr77   1.973       .  S
O69          C70   1.260   1_545  A
C70        C1801   1.485       .  S
C70          O71   1.269       .  A
O71         Cr78   2.015       .  S
O72         Cr78   1.987       .  S
O72          C73   1.263       .  A
C73        C1780   1.485       .  S
C73          O74   1.263       .  A
O74         Cr79   1.989   1_565  S
O75         Cr79   1.989       .  S
O75          C76   1.259       .  A
C76        C1813   1.489       .  S
Cr77         O80   1.773       .  S
Cr78         O80   1.771   1_565  S
Cr79         O80   1.772       .  S
O81         Cr99   2.001       .  S
O81          C89   1.263       .  A
O82         Cr99   1.973       .  S
O82          C83   1.262       .  A
C83        C1756   1.495       .  S
C83          O84   1.272       .  A
O84        Cr100   2.026       .  S
O85        Cr100   1.967       .  S
O85          C86   1.256       .  A
C86        C1732   1.462       .  S
C86          O87   1.266       .  A
O87        Cr101   2.009       .  S
O88        Cr101   1.975       .  S
O88          C89   1.255       .  A
C89        C1765   1.482       .  S
O90         Cr99   1.974       .  S
O90          C98   1.260       .  A
O91         Cr99   1.998       .  S
O91          C92   1.261       .  A
C92        C1888   1.485       .  S
C92          O93   1.260       .  A
O93        Cr100   1.985       .  S
O94        Cr100   2.015       .  S
O94          C95   1.267       .  A
C95        C1744   1.472       .  S
C95          O96   1.259       .  A
O96        Cr101   1.972       .  S
O97        Cr101   2.032       .  S
O97          C98   1.273       .  A
C98        C1852   1.483       .  S
Cr99        O102   1.773       .  S
Cr100       O102   1.767       .  S
Cr101       O102   1.768       .  S
C103        C104   1.407       .  A
C103        C108   1.410       .  A
C103       C1720   1.489       .  S
C104        C105   1.406       .  A
C104        H109   1.083       .  S
C105        C106   1.398       .  A
C105       C1705   1.484       .  S
C106        C107   1.396       .  A
C106        H110   1.084       .  S
C107        C108   1.404       .  A
C107       C1768   1.476       .  S
C108        H111   1.084       .  S
C112        C113   1.410       .  A
C112        C117   1.412       .  A
C112       C1753   1.494       .  S
C113        C114   1.404       .  A
C113        H118   1.083       .  S
C114        C115   1.398       .  A
C114       C1684   1.479       .  S
C115        C116   1.399       .  A
C115        H119   1.084       .  S
C116        C117   1.406       .  A
C116       C1693   1.483       .  S
C117        H120   1.084       .  S
O121       Cr139   1.969       .  S
O121        C129   1.260   1_455  A
O122       Cr139   2.007       .  S
O122        C123   1.265       .  A
C123       C2008   1.493       .  S
C123        O124   1.258   1_455  A
O124       Cr140   1.983       .  S
O125       Cr140   2.000       .  S
O125        C126   1.268       .  A
C126       C1669   1.486       .  S
C126        O127   1.260       .  A
O127       Cr141   1.977       .  S
O128       Cr141   2.024       .  S
O128        C129   1.271       .  A
C129       C1972   1.480       .  S
O130       Cr139   2.005       .  S
O130        C138   1.265       .  A
O131       Cr139   1.968       .  S
O131        C132   1.259       .  A
C132       C1717   1.482       .  S
C132        O133   1.270       .  A
O133       Cr140   2.016   1_455  S
O134       Cr140   1.977       .  S
O134        C135   1.260       .  A
C135       C1657   1.494       .  S
C135        O136   1.266       .  A
O136       Cr141   2.009       .  S
O137       Cr141   1.981       .  S
O137        C138   1.258   1_655  A
C138       C1696   1.490       .  S
Cr139       O142   1.772   1_455  S
Cr140       O142   1.763       .  S
Cr141       O142   1.770       .  S
C143        C144   1.412       .  A
C143        C148   1.410       .  A
C143       C1804   1.489       .  S
C144        C145   1.406       .  A
C144        H149   1.083       .  S
C145        C146   1.397       .  A
C145       C1636   1.481       .  S
C146        C147   1.393       .  A
C146        H150   1.085       .  S
C147        C148   1.401       .  A
C147       C1645   1.471   1_554  S
C148        H151   1.084       .  S
C152        C153   1.414       .  A
C152        C157   1.412       .  A
C152       C1624   1.495       .  S
C153        C154   1.409       .  A
C153        H158   1.083       .  S
C154        C155   1.397       .  A
C154       C1612   1.487       .  S
C155        C156   1.396       .  A
C155        H159   1.085       .  S
C156        C157   1.407       .  A
C156       C1816   1.482       .  S
C157        H160   1.084       .  S
O161       Cr179   1.991       .  S
O161        C169   1.258       .  A
O162       Cr179   1.975   1_545  S
O162        C163   1.262       .  A
C163       C1621   1.493       .  S
C163        O164   1.275       .  A
O164       Cr180   2.030       .  S
O165       Cr180   1.963       .  S
O165        C166   1.255       .  A
C166       C1573   1.457       .  S
C166        O167   1.264       .  A
O167       Cr181   2.000       .  S
O168       Cr181   1.987       .  S
O168        C169   1.259   1_545  A
C169       C1648   1.488       .  S
O170       Cr179   1.971       .  S
O170        C178   1.263       .  A
O171       Cr179   1.992       .  S
O171        C172   1.262   1_565  A
C172       C1597   1.488   1_545  S
C172        O173   1.257       .  A
O173       Cr180   1.984       .  S
O174       Cr180   2.019       .  S
O174        C175   1.269       .  A
C175       C1561   1.475       .  S
C175        O176   1.259       .  A
O176       Cr181   1.976       .  S
O177       Cr181   2.023   1_565  S
O177        C178   1.272       .  A
C178       C1588   1.488       .  S
Cr179       O182   1.770   1_565  S
Cr180       O182   1.767       .  S
Cr181       O182   1.767       .  S
C183        C184   1.416       .  A
C183        C188   1.408       .  A
C183       C1552   1.494       .  S
C184        C185   1.409       .  A
C184        H189   1.083       .  S
C185        C186   1.395       .  A
C185       C1936   1.481       .  S
C186        C187   1.395       .  A
C186        H190   1.085       .  S
C187        C188   1.400       .  A
C187       C1537   1.469       .  S
C188        H191   1.084       .  S
C192        C193   1.409       .  A
C192        C197   1.409       .  A
C192       C1924   1.492       .  S
C193        C194   1.403       .  A
C193        H198   1.083       .  S
C194        C195   1.399       .  A
C194       C1525   1.484       .  S
C195        C196   1.406       .  A
C195        H199   1.081       .  S
C196        C197   1.412       .  A
C196       C1513   1.501       .  S
C197        H200   1.082       .  S
C201        C202   1.411       .  A
C201        C206   1.406       .  A
C201       C1504   1.484       .  S
C202        C203   1.405       .  A
C202        H207   1.083       .  S
C203        C204   1.395       .  A
C203       C1600   1.475       .  S
C204        C205   1.392       .  A
C204        H208   1.085       .  S
C205        C206   1.400       .  A
C205       C1492   1.467       .  S
C206        H209   1.084       .  S
C210        C211   1.413       .  A
C210        C215   1.409       .  A
C210       C1585   1.492       .  S
C211        C212   1.407       .  A
C211        H216   1.084       .  S
C212        C213   1.397       .  A
C212       C1477   1.482       .  S
C213        C214   1.396       .  A
C213        H217   1.085       .  S
C214        C215   1.400       .  A
C214       C1465   1.472       .  S
C215        H218   1.083       .  S
O219       Cr237   1.964       .  S
O219        C227   1.261       .  A
O220       Cr237   2.009       .  S
O220        C221   1.265       .  A
C221       C1528   1.487       .  S
C221        O222   1.259       .  A
O222       Cr238   1.983       .  S
O223       Cr238   2.022       .  S
O223        C224   1.268       .  A
C224       C1441   1.469       .  S
C224        O225   1.254       .  A
O225       Cr239   1.961       .  S
O226       Cr239   2.032       .  S
O226        C227   1.274       .  A
C227       C1549   1.489       .  S
O228       Cr237   2.008       .  S
O228        C236   1.263       .  A
O229       Cr237   1.962       .  S
O229        C230   1.258       .  A
C230       C1501   1.483       .  S
C230        O231   1.273       .  A
O231       Cr238   2.023       .  S
O232       Cr238   1.966       .  S
O232        C233   1.254       .  A
C233       C1453   1.471       .  S
C233        O234   1.267       .  A
O234       Cr239   2.016       .  S
O235       Cr239   1.971       .  S
O235        C236   1.256       .  A
C236       C1480   1.492       .  S
Cr237       O240   1.774       .  S
Cr238       O240   1.770       .  S
Cr239       O240   1.767       .  S
C241        C242   1.406       .  A
C241        C246   1.406       .  A
C241       C1417   1.493       .  S
C242        C243   1.410       .  A
C242        H247   1.084       .  S
C243        C244   1.405       .  A
C243       C1456   1.492       .  S
C244        C245   1.401       .  A
C244        H248   1.081       .  S
C245        C246   1.406       .  A
C245       C1429   1.488       .  S
C246        H249   1.083       .  S
C250        C251   1.412       .  A
C250        C255   1.408       .  A
C250       C1405   1.490       .  S
C251        C252   1.412       .  A
C251        H256   1.083       .  S
C252        C253   1.403   1_455  A
C252       C1393   1.493       .  S
C253        C254   1.400       .  A
C253        H257   1.084       .  S
C254        C255   1.406   1_655  A
C254       C1564   1.493       .  S
C255        H258   1.083       .  S
O259       Cr277   1.976   1_655  S
O259        C267   1.262       .  A
O260       Cr277   2.011       .  S
O260        C261   1.267       .  A
C261       C1381   1.495       .  S
C261        O262   1.259       .  A
O262       Cr278   1.985       .  S
O263       Cr278   2.001       .  S
O263        C264   1.265   1_455  A
C264       C1540   1.480       .  S
C264        O265   1.262       .  A
O265       Cr279   1.979       .  S
O266       Cr279   2.019       .  S
O266        C267   1.269       .  A
C267       C1369   1.492       .  S
O268       Cr277   2.007   1_655  S
O268        C276   1.265       .  A
O269       Cr277   1.972       .  S
O269        C270   1.259       .  A
C270       C1420   1.482       .  S
C270        O271   1.268       .  A
O271       Cr278   2.019       .  S
O272       Cr278   1.988       .  S
O272        C273   1.263       .  A
C273       C1360   1.488       .  S
C273        O274   1.263   1_455  A
O274       Cr279   1.992       .  S
O275       Cr279   1.986       .  S
O275        C276   1.259       .  A
C276       C1396   1.490       .  S
Cr277       O280   1.771       .  S
Cr278       O280   1.771       .  S
Cr279       O280   1.766   1_655  S
O281       Cr299   1.958       .  S
O281        C289   1.252       .  A
O282       Cr299   2.025       .  S
O282        C283   1.271       .  A
C283       C1408   1.504       .  S
C283        O284   1.260       .  A
O284       Cr300   1.971       .  S
O285       Cr300   1.993       .  S
O285        C286   1.261       .  A
C286       C1321   1.466       .  S
C286        O287   1.262       .  A
O287       Cr301   1.980       .  S
O288       Cr301   2.022       .  S
O288        C289   1.268       .  A
C289       C1432   1.495       .  S
O290       Cr299   2.020       .  S
O290        C298   1.269       .  A
O291       Cr299   1.964       .  S
O291        C292   1.254       .  A
C292       C1345   1.485       .  S
C292        O293   1.264       .  A
O293       Cr300   2.010       .  S
O294       Cr300   1.986       .  S
O294        C295   1.264       .  A
C295       C1609   1.476       .  S
C295        O296   1.264       .  A
O296       Cr301   2.003       .  S
O297       Cr301   1.964       .  S
O297        C298   1.256       .  A
C298       C1336   1.495       .  S
Cr299       O302   1.777       .  S
Cr300       O302   1.776       .  S
Cr301       O302   1.771       .  S
C303        C304   1.412       .  A
C303        C308   1.408       .  A
C303       C1312   1.488       .  S
C304        C305   1.406       .  A
C304        H309   1.082       .  S
C305        C306   1.396       .  A
C305       C1300   1.483       .  S
C306        C307   1.395       .  A
C306        H310   1.085       .  S
C307        C308   1.404       .  A
C307       C1348   1.473   1_554  S
C308        H311   1.085       .  S
C312        C313   1.412       .  A
C312        C317   1.414       .  A
C312       C1333   1.500       .  S
C313        C314   1.400       .  A
C313        H318   1.083       .  S
C314        C315   1.395       .  A
C314       C1276   1.474       .  S
C315        C316   1.398       .  A
C315        H319   1.085       .  S
C316        C317   1.410       .  A
C316       C1285   1.483       .  S
C317        H320   1.083       .  S
O321       Cr339   2.019       .  S
O321        C329   1.268       .  A
O322       Cr339   1.968       .  S
O322        C323   1.255       .  A
C323       C1288   1.495       .  S
C323        O324   1.265       .  A
O324       Cr340   2.018       .  S
O325       Cr340   1.976       .  S
O325        C326   1.263       .  A
C326       C1633   1.469       .  S
C326        O327   1.265       .  A
O327       Cr341   2.003       .  S
O328       Cr341   1.965       .  S
O328        C329   1.260       .  A
C329       C1309   1.501       .  S
O330       Cr339   1.960       .  S
O330        C338   1.253       .  A
O331       Cr339   2.024       .  S
O331        C332   1.270       .  A
C332       C1249   1.497       .  S
C332        O333   1.255       .  A
O333       Cr340   1.958       .  S
O334       Cr340   1.991       .  S
O334        C335   1.261       .  A
C335       C1237   1.471       .  S
C335        O336   1.266       .  A
O336       Cr341   1.990       .  S
O337       Cr341   2.020       .  S
O337        C338   1.268       .  A
C338       C1261   1.488       .  S
Cr339       O342   1.775       .  S
Cr340       O342   1.770       .  S
Cr341       O342   1.773       .  S
C343        C344   1.411       .  A
C343        C348   1.413       .  A
C343       C1372   1.494       .  S
C344        C345   1.406       .  A
C344        H349   1.084       .  S
C345        C346   1.394       .  A
C345       C1216   1.480       .  S
C346        C347   1.395       .  A
C346        H350   1.084       .  S
C347        C348   1.405       .  A
C347       C1228   1.478       .  S
C348        H351   1.083       .  S
C352        C353   1.407       .  A
C352        C357   1.417       .  A
C352       C1201   1.499       .  S
C353        C354   1.403   1_655  A
C353        H358   1.084       .  S
C354        C355   1.397       .  A
C354       C1192   1.476       .  S
C355        C356   1.397   1_455  A
C355        H359   1.085       .  S
C356        C357   1.409       .  A
C356       C1384   1.483       .  S
C357        H360   1.083       .  S
C361        C362   1.415       .  A
C361        C366   1.411       .  A
C361       C1168   1.495       .  S
C362        C363   1.406       .  A
C362        H367   1.083       .  S
C363        C364   1.395       .  A
C363       C1177   1.480       .  S
C364        C365   1.394       .  A
C364        H368   1.085       .  S
C365        C366   1.403       .  A
C365       C1912   1.473       .  S
C366        H369   1.083       .  S
C370        C371   1.414       .  A
C370        C375   1.409       .  A
C370       C1156   1.491       .  S
C371        C372   1.405       .  A
C371        H376   1.083       .  S
C372        C373   1.395       .  A
C372       C1144   1.482       .  S
C373        C374   1.396       .  A
C373        H377   1.085       .  S
C374        C375   1.400       .  A
C374       C1672   1.470       .  S
C375        H378   1.083       .  S
O379       Cr397   1.997       .  S
O379        C387   1.262       .  A
O380       Cr397   1.967       .  S
O380        C381   1.260       .  A
C381       C1165   1.491   1_545  S
C381        O382   1.275   1_545  A
O382       Cr398   2.034       .  S
O383       Cr398   1.975       .  S
O383        C384   1.260       .  A
C384       C1132   1.487       .  S
C384        O385   1.270       .  A
O385       Cr399   2.009   1_565  S
O386       Cr399   1.989       .  S
O386        C387   1.258       .  A
C387       C1141   1.491       .  S
O388       Cr397   1.962       .  S
O388        C396   1.259       .  A
O389       Cr397   1.992       .  S
O389        C390   1.261       .  A
C390       C1225   1.491       .  S
C390        O391   1.257       .  A
O391       Cr398   1.987   1_545  S
O392       Cr398   2.010       .  S
O392        C393   1.267       .  A
C393       C1516   1.477       .  S
C393        O394   1.259   1_565  A
O394       Cr399   1.978       .  S
O395       Cr399   2.037       .  S
O395        C396   1.275       .  A
C396       C1204   1.484       .  S
Cr397       O400   1.771       .  S
Cr398       O400   1.771   1_565  S
Cr399       O400   1.769       .  S
O401       Cr419   1.969       .  S
O401        C409   1.261       .  A
O402       Cr419   2.003       .  S
O402        C403   1.262   1_565  A
C403       C1117   1.483   1_545  S
C403        O404   1.257       .  A
O404       Cr420   1.972       .  S
O405       Cr420   2.015       .  S
O405        C406   1.267       .  A
C406       C1708   1.466       .  S
C406        O407   1.256       .  A
O407       Cr421   1.968       .  S
O408       Cr421   2.032   1_565  S
O408        C409   1.275       .  A
C409       C1105   1.488       .  S
O410       Cr419   1.999       .  S
O410        C418   1.262       .  A
O411       Cr419   1.963   1_545  S
O411        C412   1.258       .  A
C412       C1153   1.472       .  S
C412        O413   1.271       .  A
O413       Cr420   2.024       .  S
O414       Cr420   1.967       .  S
O414        C415   1.256       .  A
C415       C1093   1.469       .  S
C415        O416   1.269       .  A
O416       Cr421   2.020       .  S
O417       Cr421   1.986       .  S
O417        C418   1.259   1_545  A
C418       C1180   1.491       .  S
Cr419       O422   1.771   1_565  S
Cr420       O422   1.770       .  S
Cr421       O422   1.764       .  S
C423        C424   1.415       .  A
C423        C428   1.410       .  A
C423       C1108   1.494       .  S
C424        C425   1.409       .  A
C424        H429   1.083       .  S
C425        C426   1.395   1_455  A
C425       C1081   1.480       .  S
C426        C427   1.395       .  A
C426        H430   1.085       .  S
C427        C428   1.403   1_655  A
C427       C1072   1.473       .  S
C428        H431   1.084       .  S
C432        C433   1.413       .  A
C432        C437   1.411       .  A
C432       C1057   1.494       .  S
C433        C434   1.399       .  A
C433        H438   1.084       .  S
C434        C435   1.389       .  A
C434       C1120   1.468       .  S
C435        C436   1.395       .  A
C435        H439   1.085       .  S
C436        C437   1.406       .  A
C436       C1045   1.475       .  S
C437        H440   1.083       .  S
C441        C442   1.420       .  A
C441        C446   1.407       .  A
C441       C1252   1.495       .  S
C442        C443   1.417       .  A
C442        H447   1.082       .  S
C443        C444   1.400   1_655  A
C443       C1036   1.490       .  S
C444        C445   1.391       .  A
C444        H448   1.085       .  S
C445        C446   1.392   1_455  A
C445       C1792   1.466       .  S
C446        H449   1.084       .  S
C450        C451   1.411       .  A
C450        C455   1.410       .  A
C450       C1024   1.497       .  S
C451        C452   1.410       .  A
C451        H456   1.083       .  S
C452        C453   1.401       .  A
C452       C1741   1.491       .  S
C453        C454   1.396       .  A
C453        H457   1.083       .  S
C454        C455   1.402       .  A
C454       C1264   1.477       .  S
C455        H458   1.083       .  S
O459       Cr477   1.995       .  S
O459        C467   1.260       .  A
O460       Cr477   1.967   1_655  S
O460        C461   1.259       .  A
C461       C1021   1.480       .  S
C461        O462   1.272       .  A
O462       Cr478   2.027       .  S
O463       Cr478   1.975       .  S
O463        C464   1.260       .  A
C464       C1009   1.486       .  S
C464        O465   1.268   1_655  A
O465       Cr479   2.008       .  S
O466       Cr479   2.001       .  S
O466        C467   1.261       .  A
C467       C1033   1.497       .  S
O468       Cr477   1.965       .  S
O468        C476   1.261       .  A
O469       Cr477   2.007   1_655  S
O469        C470   1.264       .  A
C470       C1084   1.497       .  S
C470        O471   1.256       .  A
O471       Cr478   1.982       .  S
O472       Cr478   2.001   1_455  S
O472        C473   1.269       .  A
C473       C1681   1.494       .  S
C473        O474   1.264       .  A
O474       Cr479   1.986       .  S
O475       Cr479   2.034       .  S
O475        C476   1.274       .  A
C476       C1060   1.482       .  S
Cr477       O480   1.775       .  S
Cr478       O480   1.766   1_655  S
Cr479       O480   1.771       .  S
C481        C482   1.417       .  A
C481        C486   1.419       .  A
C481        C985   1.507       .  S
C482        C483   1.407       .  A
C482        H487   1.083       .  S
C483        C484   1.395       .  A
C483       C1357   1.492       .  S
C484        C485   1.391       .  A
C484        H488   1.085       .  S
C485        C486   1.408       .  A
C485        C997   1.480       .  S
C486        H489   1.081       .  S
C490        C491   1.411   1_565  A
C490        C495   1.413       .  A
C490        C973   1.489       .  S
C491        C492   1.405       .  A
C491        H496   1.083       .  S
C492        C493   1.394       .  A
C492       C1324   1.478       .  S
C493        C494   1.393       .  A
C493        H497   1.085       .  S
C494        C495   1.404   1_545  A
C494        C961   1.480       .  S
C495        H498   1.083       .  S
O499       Cr517   2.026   1_565  S
O499        C507   1.270       .  A
O500       Cr517   1.962       .  S
O500        C501   1.255       .  A
C501        C964   1.490       .  S
C501        O502   1.263       .  A
O502       Cr518   2.005       .  S
O503       Cr518   1.975       .  S
O503        C504   1.261   1_545  A
C504       C1489   1.458       .  S
C504        O505   1.262       .  A
O505       Cr519   1.992       .  S
O506       Cr519   1.969       .  S
O506        C507   1.257       .  A
C507        C988   1.496       .  S
O508       Cr517   1.962       .  S
O508        C516   1.256       .  A
O509       Cr517   2.026       .  S
O509        C510   1.270       .  A
C510        C937   1.502       .  S
C510        O511   1.259       .  A
O511       Cr518   1.966       .  S
O512       Cr518   1.994       .  S
O512        C513   1.262       .  A
C513       C1213   1.469       .  S
C513        O514   1.263       .  A
O514       Cr519   1.982   1_545  S
O515       Cr519   2.019       .  S
O515        C516   1.267   1_565  A
C516        C949   1.490       .  S
Cr517       O520   1.773       .  S
Cr518       O520   1.773       .  S
Cr519       O520   1.772   1_565  S
C521        C522   1.410       .  A
C521        C526   1.415   1_565  A
C521        C913   1.496       .  S
C522        C523   1.401   1_565  A
C522        H527   1.083       .  S
C523        C524   1.395       .  A
C523        C925   1.479       .  S
C524        C525   1.399       .  A
C524        H528   1.085       .  S
C525        C526   1.411       .  A
C525       C1660   1.491       .  S
C526        H529   1.083       .  S
C530        C531   1.409       .  A
C530        C535   1.413       .  A
C530        C901   1.496       .  S
C531        C532   1.405       .  A
C531        H536   1.082       .  S
C532        C533   1.396       .  A
C532       C1729   1.483       .  S
C533        C534   1.398       .  A
C533        H537   1.085       .  S
C534        C535   1.410       .  A
C534        C892   1.484       .  S
C535        H538   1.084       .  S
C539        C540   1.414       .  A
C539        C544   1.409       .  A
C539        C865   1.492       .  S
C540        C541   1.410       .  A
C540        H545   1.083       .  S
C541        C542   1.397       .  A
C541        C877   1.485   1_554  S
C542        C543   1.394       .  A
C542        H546   1.085       .  S
C543        C544   1.404       .  A
C543       C1777   1.475       .  S
C544        H547   1.083       .  S
C548        C549   1.406       .  A
C548        C553   1.408       .  A
C548        C856   1.484       .  S
C549        C550   1.403       .  A
C549        H554   1.083       .  S
C550        C551   1.394       .  A
C550       C1576   1.471       .  S
C551        C552   1.394       .  A
C551        H555   1.085       .  S
C552        C553   1.402       .  A
C552        C841   1.469       .  S
C553        H556   1.084       .  S
C557        C558   1.416       .  A
C557        C562   1.411       .  A
C557        C817   1.497       .  S
C558        C559   1.411   1_545  A
C558        H563   1.083       .  S
C559        C560   1.395       .  A
C559       C1240   1.486       .  S
C560        C561   1.393   1_565  A
C560        H564   1.086       .  S
C561        C562   1.404       .  A
C561        C829   1.474       .  S
C562        H565   1.084       .  S
C566        C567   1.417       .  A
C566        C571   1.416       .  A
C566        C805   1.505       .  S
C567        C568   1.411       .  A
C567        H572   1.083       .  S
C568        C569   1.396       .  A
C568        C793   1.485       .  S
C569        C570   1.393       .  A
C569        H573   1.085       .  S
C570        C571   1.405       .  A
C570       C1012   1.479       .  S
C571        H574   1.083       .  S
O575       Cr593   2.031       .  S
O575        C583   1.269       .  A
O576       Cr593   1.961       .  S
O576        C577   1.255       .  A
C577        C796   1.496       .  S
C577        O578   1.268   1_655  A
O578       Cr594   2.024       .  S
O579       Cr594   1.985       .  S
O579        C580   1.266       .  A
C580       C1861   1.468       .  S
C580        O581   1.264       .  A
O581       Cr595   1.993       .  S
O582       Cr595   1.969   1_655  S
O582        C583   1.259       .  A
C583        C820   1.506       .  S
O584       Cr593   1.951       .  S
O584        C592   1.251       .  A
O585       Cr593   2.028       .  S
O585        C586   1.269   1_655  A
C586        C868   1.492       .  S
C586        O587   1.258       .  A
O587       Cr594   1.976       .  S
O588       Cr594   1.995       .  S
O588        C589   1.262       .  A
C589       C1297   1.474       .  S
C589        O590   1.264       .  A
O590       Cr595   1.987       .  S
O591       Cr595   2.019   1_655  S
O591        C592   1.268       .  A
C592        C844   1.482       .  S
Cr593       O596   1.777   1_655  S
Cr594       O596   1.773       .  S
Cr595       O596   1.773       .  S
O597       Cr615   1.964   1_565  S
O597        C605   1.252   1_565  A
O598       Cr615   2.025   1_565  S
O598        C599   1.269       .  A
C599        C904   1.505       .  S
C599        O600   1.258       .  A
O600       Cr616   1.965       .  S
O601       Cr616   1.992       .  S
O601        C602   1.264       .  A
C602       C1048   1.461       .  S
C602        O603   1.264       .  A
O603       Cr617   1.977   1_565  S
O604       Cr617   2.012       .  S
O604        C605   1.263       .  A
C605        C928   1.491       .  S
O606       Cr615   2.040       .  S
O606        C614   1.275       .  A
O607       Cr615   1.960       .  S
O607        C608   1.255       .  A
C608        C832   1.486       .  S
C608        O609   1.266   1_545  A
O609       Cr616   2.013       .  S
O610       Cr616   1.989   1_545  S
O610        C611   1.264       .  A
C611       C1828   1.465       .  S
C611        O612   1.259       .  A
O612       Cr617   1.986       .  S
O613       Cr617   1.963       .  S
O613        C614   1.257       .  A
C614        C808   1.501       .  S
Cr615       O618   1.775       .  S
Cr616       O618   1.773   1_565  S
Cr617       O618   1.771       .  S
O619       Cr637   2.003       .  S
O619        C627   1.263       .  A
O620       Cr637   1.966       .  S
O620        C621   1.260   1_455  A
C621        C853   1.479       .  S
C621        O622   1.271       .  A
O622       Cr638   2.022       .  S
O623       Cr638   1.985       .  S
O623        C624   1.264       .  A
C624       C1273   1.483       .  S
C624        O625   1.267       .  A
O625       Cr639   2.000       .  S
O626       Cr639   1.981       .  S
O626        C627   1.257   1_655  A
C627        C880   1.487       .  S
O628       Cr637   1.969       .  S
O628        C636   1.258       .  A
O629       Cr637   1.996       .  S
O629        C630   1.259       .  A
C630       C1000   1.495       .  S
C630        O631   1.260   1_455  A
O631       Cr638   1.988       .  S
O632       Cr638   1.994       .  S
O632        C633   1.266       .  A
C633       C1468   1.488       .  S
C633        O634   1.262       .  A
O634       Cr639   1.981       .  S
O635       Cr639   2.031   1_455  S
O635        C636   1.272       .  A
C636        C976   1.480       .  S
Cr637       O640   1.776   1_455  S
Cr638       O640   1.771       .  S
Cr639       O640   1.771       .  S
C641        C642   1.413       .  A
C641        C646   1.414       .  A
C641        C769   1.499       .  S
C642        C643   1.405       .  A
C642        H647   1.083       .  S
C643        C644   1.397       .  A
C643        C781   1.485       .  S
C644        C645   1.397       .  A
C644        H648   1.085       .  S
C645        C646   1.410       .  A
C645       C1096   1.487       .  S
C646        H649   1.082       .  S
C650        C651   1.413       .  A
C650        C655   1.415       .  A
C650        C760   1.497       .  S
C651        C652   1.405       .  A
C651        H656   1.083       .  S
C652        C653   1.395       .  A
C652       C1129   1.476       .  S
C653        C654   1.393       .  A
C653        H657   1.085       .  S
C654        C655   1.405       .  A
C654        C745   1.477       .  S
C655        H658   1.083       .  S
O659       Cr677   1.982       .  S
O659        C667   1.262       .  A
O660       Cr677   1.998       .  S
O660        C661   1.262       .  A
C661        C748   1.493       .  S
C661        O662   1.258       .  A
O662       Cr678   1.991       .  S
O663       Cr678   1.988       .  S
O663        C664   1.261       .  A
C664       C1948   1.489       .  S
C664        O665   1.264       .  A
O665       Cr679   1.986       .  S
O666       Cr679   2.024       .  S
O666        C667   1.270       .  A
C667        C772   1.485       .  S
O668       Cr677   2.004       .  S
O668        C676   1.263       .  A
O669       Cr677   1.980       .  S
O669        C670   1.262       .  A
C670        C916   1.491       .  S
C670        O671   1.270       .  A
O671       Cr678   2.020       .  S
O672       Cr678   1.987       .  S
O672        C673   1.264       .  A
C673       C1069   1.487       .  S
C673        O674   1.266       .  A
O674       Cr679   1.994       .  S
O675       Cr679   1.977       .  S
O675        C676   1.257       .  A
C676        C889   1.487       .  S
Cr677       O680   1.774       .  S
Cr678       O680   1.768       .  S
Cr679       O680   1.772       .  S
C681        C682   1.408       .  A
C681        C686   1.413       .  A
C681        C940   1.487       .  S
C682        C683   1.403       .  A
C682        H687   1.083       .  S
C683        C684   1.395       .  A
C683       C1444   1.478       .  S
C684        C685   1.398       .  A
C684        H688   1.085       .  S
C685        C686   1.410       .  A
C685        C733   1.484       .  S
C686        H689   1.084       .  S
C690        C691   1.414       .  A
C690        C695   1.410       .  A
C690        C724   1.498       .  S
C691        C692   1.416   1_545  A
C691        H696   1.082       .  S
C692        C693   1.402       .  A
C692       C1900   1.499       .  S
C693        C694   1.393   1_565  A
C693        H697   1.082       .  S
C694        C695   1.402       .  A
C694        C952   1.478       .  S
C695        H698   1.083       .  S
O699       Cr717   2.003       .  S
O699        C707   1.263       .  A
O700       Cr717   1.972       .  S
O700        C701   1.260       .  A
C701        C721   1.486       .  S
C701        O702   1.271       .  A
O702       Cr718   2.029       .  S
O703       Cr718   1.970       .  S
O703        C704   1.257       .  A
C704       C1189   1.465       .  S
C704        O705   1.266       .  A
O705       Cr719   2.007       .  S
O706       Cr719   1.982       .  S
O706        C707   1.258       .  A
C707        C736   1.490       .  S
O708       Cr717   1.972       .  S
O708        C716   1.261       .  A
O709       Cr717   2.005       .  S
O709        C710   1.264       .  A
C710        C784   1.488       .  S
C710        O711   1.258       .  A
O711       Cr718   1.978       .  S
O712       Cr718   2.018       .  S
O712        C713   1.268       .  A
C713       C1981   1.471       .  S
C713        O714   1.258       .  A
O714       Cr719   1.971       .  S
O715       Cr719   2.029       .  S
O715        C716   1.273       .  A
C716        C757   1.491       .  S
Cr717       O720   1.768       .  S
Cr718       O720   1.771       .  S
Cr719       O720   1.767       .  S
C721        C722   1.404       .  A
C721        C726   1.412       .  A
C722        C723   1.399       .  A
C722        H731   1.085       .  S
C723        C724   1.417       .  A
C723        S727   1.802       .  S
C724        C725   1.410       .  A
C725        C726   1.408       .  A
C725        H732   1.083       .  S
C726        S728   1.798       .  S
S727        H730   1.406       .  S
S728        H729   1.405       .  S
C733        C734   1.405       .  A
C733        C738   1.412       .  A
C734        C735   1.397       .  A
C734        H743   1.084       .  S
C735        C736   1.417       .  A
C735        S739   1.803       .  S
C736        C737   1.411       .  A
C737        C738   1.404       .  A
C737        H744   1.084       .  S
C738        S740   1.803       .  S
S739        H742   1.408       .  S
S740        H741   1.406       .  S
C745        C746   1.403       .  A
C745        C750   1.408       .  A
C746        C747   1.404       .  A
C746        H755   1.084       .  S
C747        C748   1.419       .  A
C747        S751   1.801       .  S
C748        C749   1.409       .  A
C749        C750   1.397       .  A
C749        H756   1.084       .  S
C750        S752   1.805       .  S
S751        H754   1.408       .  S
S752        H753   1.404       .  S
C757        C758   1.405       .  A
C757        C762   1.416       .  A
C758        C759   1.405       .  A
C758        H767   1.085       .  S
C759        C760   1.419       .  A
C759        S763   1.804       .  S
C760        C761   1.406       .  A
C761        C762   1.402       .  A
C761        H768   1.084       .  S
C762        S764   1.803       .  S
S763        H766   1.407       .  S
S764        H765   1.408       .  S
C769        C770   1.406       .  A
C769        C774   1.419       .  A
C770        C771   1.400       .  A
C770        H779   1.084       .  S
C771        C772   1.415       .  A
C771        S775   1.804       .  S
C772        C773   1.404       .  A
C773        C774   1.407       .  A
C773        H780   1.084       .  S
C774        S776   1.801       .  S
S775        H778   1.404       .  S
S776        H777   1.407       .  S
C781        C782   1.404       .  A
C781        C786   1.413       .  A
C782        C783   1.396       .  A
C782        H791   1.084       .  S
C783        C784   1.416       .  A
C783        S787   1.803       .  S
C784        C785   1.410       .  A
C785        C786   1.403       .  A
C785        H792   1.085       .  S
C786        S788   1.803       .  S
S787        H790   1.407       .  S
S788        H789   1.406       .  S
C793        C794   1.405       .  A
C793        C798   1.407       .  A
C794        C795   1.401       .  A
C794        H803   1.084       .  S
C795        C796   1.416       .  A
C795        S799   1.799   1_655  S
C796        C797   1.413       .  A
C797        C798   1.405       .  A
C797        H804   1.080       .  S
C798        S800   1.807       .  S
S799        H802   1.408       .  S
S800        H801   1.407       .  S
C805        C806   1.405       .  A
C805        C810   1.421       .  A
C806        C807   1.402       .  A
C806        H815   1.084       .  S
C807        C808   1.421       .  A
C807        S811   1.804       .  S
C808        C809   1.407       .  A
C809        C810   1.410       .  A
C809        H816   1.084       .  S
C810        S812   1.803       .  S
S811        H814   1.408       .  S
S812        H813   1.407       .  S
C817        C818   1.408       .  A
C817        C822   1.412       .  A
C818        C819   1.410       .  A
C818        H827   1.084       .  S
C819        C820   1.421       .  A
C819        S823   1.799       .  S
C820        C821   1.411       .  A
C821        C822   1.400       .  A
C821        H828   1.082       .  S
C822        S824   1.802       .  S
S823        H826   1.403       .  S
S824        H825   1.407       .  S
C829        C830   1.402       .  A
C829        C834   1.410       .  A
C830        C831   1.399       .  A
C830        H839   1.085       .  S
C831        C832   1.415       .  A
C831        S835   1.799   1_545  S
C832        C833   1.409       .  A
C833        C834   1.399       .  A
C833        H840   1.085       .  S
C834        S836   1.804       .  S
S835        H838   1.408       .  S
S836        H837   1.403       .  S
C841        C842   1.396   1_556  A
C841        C846   1.411       .  A
C842        C843   1.395       .  A
C842        H851   1.085       .  S
C843        C844   1.421       .  A
C843        S847   1.804       .  S
C844        C845   1.405       .  A
C845        C846   1.399   1_554  A
C845        H852   1.084       .  S
C846        S848   1.804       .  S
S847        H850   1.408       .  S
S848        H849   1.406       .  S
C853        C854   1.403       .  A
C853        C858   1.414       .  A
C854        C855   1.401       .  A
C854        H863   1.083       .  S
C855        C856   1.415       .  A
C855        S859   1.804       .  S
C856        C857   1.404       .  A
C857        C858   1.399       .  A
C857        H864   1.084       .  S
C858        S860   1.804   1_655  S
S859        H862   1.407       .  S
S860        H861   1.407       .  S
C865        C866   1.409       .  A
C865        C870   1.413       .  A
C866        C867   1.410       .  A
C866        H875   1.084       .  S
C867        C868   1.414       .  A
C867        S871   1.801   1_455  S
C868        C869   1.407       .  A
C869        C870   1.401       .  A
C869        H876   1.083       .  S
C870        S872   1.805       .  S
S871        H874   1.406   1_655  S
S872        H873   1.406       .  S
C877        C878   1.401       .  A
C877        C882   1.416       .  A
C878        C879   1.403   1_455  A
C878        H887   1.083   1_456  S
C879        C880   1.420   1_655  A
C879        S883   1.801       .  S
C880        C881   1.403       .  A
C881        C882   1.399       .  A
C881        H888   1.083       .  S
C882        S884   1.805       .  S
S883        H886   1.408       .  S
S884        H885   1.407       .  S
C889        C890   1.405       .  A
C889        C894   1.420       .  A
C890        C891   1.401       .  A
C890        H899   1.084       .  S
C891        C892   1.416       .  A
C891        S895   1.805       .  S
C892        C893   1.400       .  A
C893        C894   1.401       .  A
C893        H900   1.083       .  S
C894        S896   1.803       .  S
S895        H898   1.407       .  S
S896        H897   1.408       .  S
C901        C902   1.407       .  A
C901        C906   1.414       .  A
C902        C903   1.410       .  A
C902        H911   1.084       .  S
C903        C904   1.421       .  A
C903        S907   1.799       .  S
C904        C905   1.411       .  A
C905        C906   1.400       .  A
C905        H912   1.083       .  S
C906        S908   1.805       .  S
S907        H910   1.407       .  S
S908        H909   1.407       .  S
C913        C914   1.407       .  A
C913        C918   1.415       .  A
C914        C915   1.406       .  A
C914        H923   1.083       .  S
C915        C916   1.414       .  A
C915        S919   1.808       .  S
C916        C917   1.406       .  A
C917        C918   1.403       .  A
C917        H924   1.084       .  S
C918        S920   1.802       .  S
S919        H922   1.407       .  S
S920        H921   1.407       .  S
C925        C926   1.404       .  A
C925        C930   1.409   1_545  A
C926        C927   1.397       .  A
C926        H935   1.084       .  S
C927        C928   1.416       .  A
C927        S931   1.801       .  S
C928        C929   1.412   1_545  A
C929        C930   1.399       .  A
C929        H936   1.083       .  S
C930        S932   1.804       .  S
S931        H934   1.408       .  S
S932        H933   1.405       .  S
C937        C938   1.411       .  A
C937        C942   1.421       .  A
C938        C939   1.399       .  A
C938        H947   1.083       .  S
C939        C940   1.411       .  A
C939        S943   1.806       .  S
C940        C941   1.404       .  A
C941        C942   1.409       .  A
C941        H948   1.084       .  S
C942        S944   1.800       .  S
S943        H946   1.406       .  S
S944        H945   1.408       .  S
C949        C950   1.408       .  A
C949        C954   1.418       .  A
C950        C951   1.395       .  A
C950        H959   1.084       .  S
C951        C952   1.410       .  A
C951        S955   1.804       .  S
C952        C953   1.403       .  A
C953        C954   1.404       .  A
C953        H960   1.084       .  S
C954        S956   1.800   1_545  S
S955        H958   1.406       .  S
S956        H957   1.405   1_565  S
C961        C962   1.405       .  A
C961        C966   1.410   1_545  A
C962        C963   1.397       .  A
C962        H971   1.085       .  S
C963        C964   1.418       .  A
C963        S967   1.801       .  S
C964        C965   1.412   1_545  A
C965        C966   1.398       .  A
C965        H972   1.083       .  S
C966        S968   1.804       .  S
S967        H970   1.408       .  S
S968        H969   1.406       .  S
C973        C974   1.401       .  A
C973        C978   1.417       .  A
C974        C975   1.395       .  A
C974        H983   1.084       .  S
C975        C976   1.416       .  A
C975        S979   1.802       .  S
C976        C977   1.404       .  A
C977        C978   1.408       .  A
C977        H984   1.083       .  S
C978        S980   1.803       .  S
S979        H982   1.399       .  S
S980        H981   1.407       .  S
C985        C986   1.409       .  A
C985        C990   1.421       .  A
C986        C987   1.401       .  A
C986        H995   1.083       .  S
C987        C988   1.417       .  A
C987        S991   1.804       .  S
C988        C989   1.407       .  A
C989        C990   1.408       .  A
C989        H996   1.083       .  S
C990        S992   1.801       .  S
S991        H994   1.407       .  S
S992        H993   1.407       .  S
C997        C998   1.401       .  A
C997       C1002   1.411       .  A
C998        C999   1.402       .  A
C998       H1007   1.084       .  S
C999       C1000   1.423       .  A
C999       S1003   1.801       .  S
C1000      C1001   1.409       .  A
C1001      C1002   1.400       .  A
C1001      H1008   1.083   1_455  S
C1002      S1004   1.800       .  S
S1003      H1006   1.408       .  S
S1004      H1005   1.403       .  S
C1009      C1010   1.407       .  A
C1009      C1014   1.417       .  A
C1010      C1011   1.397       .  A
C1010      H1019   1.085   1_655  S
C1011      C1012   1.410       .  A
C1011      S1015   1.805   1_655  S
C1012      C1013   1.404       .  A
C1013      C1014   1.405       .  A
C1013      H1020   1.084       .  S
C1014      S1016   1.803       .  S
S1015      H1018   1.406   1_455  S
S1016      H1017   1.407       .  S
C1021      C1022   1.404       .  A
C1021      C1026   1.410       .  A
C1022      C1023   1.400       .  A
C1022      H1031   1.085       .  S
C1023      C1024   1.418       .  A
C1023      S1027   1.805       .  S
C1024      C1025   1.410       .  A
C1025      C1026   1.405       .  A
C1025      H1032   1.083       .  S
C1026      S1028   1.803       .  S
S1027      H1030   1.407       .  S
S1028      H1029   1.406       .  S
C1033      C1034   1.411   1_455  A
C1033      C1038   1.419       .  A
C1034      C1035   1.407       .  A
C1034      H1043   1.083       .  S
C1035      C1036   1.413       .  A
C1035      S1039   1.802       .  S
C1036      C1037   1.404   1_655  A
C1037      C1038   1.399       .  A
C1037      H1044   1.085       .  S
C1038      S1040   1.803       .  S
S1039      H1042   1.406       .  S
S1040      H1041   1.408       .  S
C1045      C1046   1.404       .  A
C1045      C1050   1.415       .  A
C1046      C1047   1.401       .  A
C1046      H1055   1.083       .  S
C1047      C1048   1.411       .  A
C1047      S1051   1.802       .  S
C1048      C1049   1.399       .  A
C1049      C1050   1.391       .  A
C1049      H1056   1.084   1_565  S
C1050      S1052   1.806   1_565  S
S1051      H1054   1.406       .  S
S1052      H1053   1.407       .  S
C1057      C1058   1.403       .  A
C1057      C1062   1.421       .  A
C1058      C1059   1.393       .  A
C1058      H1067   1.084       .  S
C1059      C1060   1.415       .  A
C1059      S1063   1.803       .  S
C1060      C1061   1.404       .  A
C1061      C1062   1.408       .  A
C1061      H1068   1.084       .  S
C1062      S1064   1.804       .  S
S1063      H1066   1.403       .  S
S1064      H1065   1.407       .  S
C1069      C1070   1.408       .  A
C1069      C1074   1.416       .  A
C1070      C1071   1.392       .  A
C1070      H1079   1.083       .  S
C1071      C1072   1.409       .  A
C1071      S1075   1.806       .  S
C1072      C1073   1.402       .  A
C1073      C1074   1.404       .  A
C1073      H1080   1.083       .  S
C1074      S1076   1.796       .  S
S1075      H1078   1.406       .  S
S1076      H1077   1.405       .  S
C1081      C1082   1.401       .  A
C1081      C1086   1.410       .  A
C1082      C1083   1.402   1_455  A
C1082      H1091   1.085       .  S
C1083      C1084   1.421       .  A
C1083      S1087   1.800       .  S
C1084      C1085   1.410   1_655  A
C1085      C1086   1.402       .  A
C1085      H1092   1.084       .  S
C1086      S1088   1.804       .  S
S1087      H1090   1.408   1_655  S
S1088      H1089   1.405       .  S
C1093      C1094   1.403       .  A
C1093      C1098   1.409       .  A
C1094      C1095   1.398       .  A
C1094      H1103   1.083       .  S
C1095      C1096   1.412       .  A
C1095      S1099   1.801       .  S
C1096      C1097   1.411       .  A
C1097      C1098   1.403       .  A
C1097      H1104   1.082       .  S
C1098      S1100   1.807       .  S
S1099      H1102   1.406       .  S
S1100      H1101   1.402       .  S
C1105      C1106   1.403       .  A
C1105      C1110   1.414       .  A
C1106      C1107   1.403       .  A
C1106      H1115   1.084       .  S
C1107      C1108   1.417       .  A
C1107      S1111   1.804       .  S
C1108      C1109   1.406       .  A
C1109      C1110   1.409       .  A
C1109      H1116   1.083       .  S
C1110      S1112   1.807       .  S
S1111      H1114   1.407       .  S
S1112      H1113   1.407       .  S
C1117      C1118   1.407   1_565  A
C1117      C1122   1.418       .  A
C1118      C1119   1.398       .  A
C1118      H1127   1.084       .  S
C1119      C1120   1.409   1_545  A
C1119      S1123   1.805       .  S
C1120      C1121   1.399       .  A
C1121      C1122   1.397       .  A
C1121      H1128   1.084       .  S
C1122      S1124   1.799       .  S
S1123      H1126   1.405       .  S
S1124      H1125   1.408       .  S
C1129      C1130   1.404       .  A
C1129      C1134   1.408       .  A
C1130      C1131   1.406       .  A
C1130      H1139   1.084       .  S
C1131      C1132   1.418       .  A
C1131      S1135   1.801       .  S
C1132      C1133   1.404       .  A
C1133      C1134   1.391       .  A
C1133      H1140   1.075       .  S
C1134      S1136   1.806       .  S
S1135      H1138   1.407       .  S
S1136      H1137   1.406       .  S
C1141      C1142   1.406       .  A
C1141      C1146   1.421       .  A
C1142      C1143   1.398       .  A
C1142      H1151   1.083       .  S
C1143      C1144   1.413       .  A
C1143      S1147   1.805       .  S
C1144      C1145   1.402       .  A
C1145      C1146   1.404       .  A
C1145      H1152   1.084       .  S
C1146      S1148   1.802   1_545  S
S1147      H1150   1.407       .  S
S1148      H1149   1.408       .  S
C1153      C1154   1.402       .  A
C1153      C1158   1.409       .  A
C1154      C1155   1.397       .  A
C1154      H1163   1.084       .  S
C1155      C1156   1.415       .  A
C1155      S1159   1.805       .  S
C1156      C1157   1.411       .  A
C1157      C1158   1.404       .  A
C1157      H1164   1.083       .  S
C1158      S1160   1.804       .  S
S1159      H1162   1.407       .  S
S1160      H1161   1.406       .  S
C1165      C1166   1.405       .  A
C1165      C1170   1.418   1_565  A
C1166      C1167   1.405       .  A
C1166      H1175   1.084       .  S
C1167      C1168   1.419       .  A
C1167      S1171   1.804       .  S
C1168      C1169   1.404   1_565  A
C1169      C1170   1.400       .  A
C1169      H1176   1.084       .  S
C1170      S1172   1.803       .  S
S1171      H1174   1.406       .  S
S1172      H1173   1.407       .  S
C1177      C1178   1.402       .  A
C1177      C1182   1.411   1_565  A
C1178      C1179   1.398       .  A
C1178      H1187   1.084       .  S
C1179      C1180   1.419       .  A
C1179      S1183   1.803       .  S
C1180      C1181   1.410   1_565  A
C1181      C1182   1.403       .  A
C1181      H1188   1.084       .  S
C1182      S1184   1.804       .  S
S1183      H1186   1.408       .  S
S1184      H1185   1.406       .  S
C1189      C1190   1.402       .  A
C1189      C1194   1.408       .  A
C1190      C1191   1.394       .  A
C1190      H1199   1.084       .  S
C1191      C1192   1.412       .  A
C1191      S1195   1.805       .  S
C1192      C1193   1.408       .  A
C1193      C1194   1.402       .  A
C1193      H1200   1.083       .  S
C1194      S1196   1.803       .  S
S1195      H1198   1.406       .  S
S1196      H1197   1.403       .  S
C1201      C1202   1.414       .  A
C1201      C1206   1.415       .  A
C1202      C1203   1.409       .  A
C1202      H1211   1.083       .  S
C1203      C1204   1.411       .  A
C1203      S1207   1.803       .  S
C1204      C1205   1.404       .  A
C1205      C1206   1.398       .  A
C1205      H1212   1.078       .  S
C1206      S1208   1.804       .  S
S1207      H1210   1.406       .  S
S1208      H1209   1.407       .  S
C1213      C1214   1.404       .  A
C1213      C1218   1.409       .  A
C1214      C1215   1.400       .  A
C1214      H1223   1.084       .  S
C1215      C1216   1.413       .  A
C1215      S1219   1.803       .  S
C1216      C1217   1.405       .  A
C1217      C1218   1.400       .  A
C1217      H1224   1.083       .  S
C1218      S1220   1.809   1_545  S
S1219      H1222   1.406       .  S
S1220      H1221   1.407       .  S
C1225      C1226   1.408       .  A
C1225      C1230   1.422       .  A
C1226      C1227   1.396       .  A
C1226      H1235   1.083       .  S
C1227      C1228   1.410       .  A
C1227      S1231   1.805       .  S
C1228      C1229   1.401       .  A
C1229      C1230   1.402       .  A
C1229      H1236   1.083       .  S
C1230      S1232   1.802       .  S
S1231      H1234   1.407       .  S
S1232      H1233   1.403       .  S
C1237      C1238   1.403       .  A
C1237      C1242   1.408       .  A
C1238      C1239   1.401       .  A
C1238      H1247   1.083       .  S
C1239      C1240   1.413       .  A
C1239      S1243   1.800       .  S
C1240      C1241   1.408       .  A
C1241      C1242   1.402       .  A
C1241      H1248   1.083       .  S
C1242      S1244   1.808       .  S
S1243      H1246   1.406       .  S
S1244      H1245   1.407       .  S
C1249      C1250   1.410       .  A
C1249      C1254   1.421       .  A
C1250      C1251   1.408       .  A
C1250      H1259   1.082       .  S
C1251      C1252   1.415       .  A
C1251      S1255   1.802       .  S
C1252      C1253   1.405       .  A
C1253      C1254   1.401       .  A
C1253      H1260   1.082       .  S
C1254      S1256   1.812       .  S
S1255      H1258   1.406       .  S
S1256      H1257   1.407       .  S
C1261      C1262   1.406       .  A
C1261      C1266   1.421       .  A
C1262      C1263   1.401       .  A
C1262      H1271   1.084       .  S
C1263      C1264   1.412       .  A
C1263      S1267   1.804       .  S
C1264      C1265   1.399       .  A
C1265      C1266   1.398       .  A
C1265      H1272   1.085       .  S
C1266      S1268   1.804       .  S
S1267      H1270   1.406       .  S
S1268      H1269   1.408       .  S
C1273      C1274   1.409       .  A
C1273      C1278   1.415       .  A
C1274      C1275   1.395       .  A
C1274      H1283   1.084       .  S
C1275      C1276   1.407       .  A
C1275      S1279   1.805       .  S
C1276      C1277   1.404       .  A
C1277      C1278   1.404       .  A
C1277      H1284   1.084       .  S
C1278      S1280   1.800       .  S
S1279      H1282   1.405       .  S
S1280      H1281   1.402       .  S
C1285      C1286   1.404       .  A
C1285      C1290   1.407   1_556  A
C1286      C1287   1.401   1_556  A
C1286      H1295   1.084       .  S
C1287      C1288   1.418       .  A
C1287      S1291   1.800       .  S
C1288      C1289   1.412       .  A
C1289      C1290   1.404       .  A
C1289      H1296   1.082       .  S
C1290      S1292   1.807   1_554  S
S1291      H1294   1.406       .  S
S1292      H1293   1.407   1_556  S
C1297      C1298   1.401       .  A
C1297      C1302   1.414       .  A
C1298      C1299   1.397       .  A
C1298      H1307   1.085       .  S
C1299      C1300   1.415       .  A
C1299      S1303   1.805       .  S
C1300      C1301   1.404       .  A
C1301      C1302   1.403       .  A
C1301      H1308   1.085       .  S
C1302      S1304   1.802       .  S
S1303      H1306   1.407       .  S
S1304      H1305   1.403       .  S
C1309      C1310   1.410       .  A
C1309      C1314   1.422       .  A
C1310      C1311   1.396       .  A
C1310      H1319   1.083       .  S
C1311      C1312   1.410       .  A
C1311      S1315   1.805       .  S
C1312      C1313   1.406       .  A
C1313      C1314   1.408       .  A
C1313      H1320   1.084       .  S
C1314      S1316   1.801       .  S
S1315      H1318   1.407       .  S
S1316      H1317   1.408       .  S
C1321      C1322   1.405       .  A
C1321      C1326   1.409       .  A
C1322      C1323   1.403       .  A
C1322      H1331   1.084       .  S
C1323      C1324   1.413       .  A
C1323      S1327   1.803       .  S
C1324      C1325   1.404       .  A
C1325      C1326   1.390       .  A
C1325      H1332   1.084       .  S
C1326      S1328   1.801       .  S
S1327      H1330   1.406       .  S
S1328      H1329   1.406       .  S
C1333      C1334   1.406       .  A
C1333      C1338   1.419       .  A
C1334      C1335   1.402       .  A
C1334      H1343   1.082       .  S
C1335      C1336   1.419       .  A
C1335      S1339   1.812       .  S
C1336      C1337   1.407       .  A
C1337      C1338   1.406       .  A
C1337      H1344   1.085       .  S
C1338      S1340   1.803       .  S
S1339      H1342   1.406       .  S
S1340      H1341   1.407       .  S
C1345      C1346   1.408       .  A
C1345      C1350   1.416       .  A
C1346      C1347   1.398       .  A
C1346      H1355   1.084       .  S
C1347      C1348   1.409       .  A
C1347      S1351   1.803       .  S
C1348      C1349   1.402       .  A
C1349      C1350   1.400       .  A
C1349      H1356   1.084   1_556  S
C1350      S1352   1.798       .  S
S1351      H1354   1.404       .  S
S1352      H1353   1.407       .  S
C1357      C1358   1.406       .  A
C1357      C1362   1.416       .  A
C1358      C1359   1.392       .  A
C1358      H1367   1.084       .  S
C1359      C1360   1.416       .  A
C1359      S1363   1.805   1_455  S
C1360      C1361   1.408       .  A
C1361      C1362   1.405       .  A
C1361      H1368   1.083       .  S
C1362      S1364   1.802       .  S
S1363      H1366   1.408       .  S
S1364      H1365   1.407       .  S
C1369      C1370   1.407       .  A
C1369      C1374   1.418       .  A
C1370      C1371   1.402       .  A
C1370      H1379   1.083       .  S
C1371      C1372   1.416       .  A
C1371      S1375   1.804       .  S
C1372      C1373   1.406       .  A
C1373      C1374   1.402       .  A
C1373      H1380   1.084       .  S
C1374      S1376   1.800       .  S
S1375      H1378   1.407       .  S
S1376      H1377   1.407       .  S
C1381      C1382   1.409   1_455  A
C1381      C1386   1.418       .  A
C1382      C1383   1.403       .  A
C1382      H1391   1.084       .  S
C1383      C1384   1.412       .  A
C1383      S1387   1.805       .  S
C1384      C1385   1.403   1_655  A
C1385      C1386   1.404       .  A
C1385      H1392   1.084       .  S
C1386      S1388   1.799       .  S
S1387      H1390   1.405       .  S
S1388      H1389   1.408       .  S
C1393      C1394   1.407   1_455  A
C1393      C1398   1.415       .  A
C1394      C1395   1.397       .  A
C1394      H1403   1.083       .  S
C1395      C1396   1.413       .  A
C1395      S1399   1.803       .  S
C1396      C1397   1.411   1_655  A
C1397      C1398   1.408       .  A
C1397      H1404   1.084       .  S
C1398      S1400   1.803       .  S
S1399      H1402   1.408       .  S
S1400      H1401   1.406       .  S
C1405      C1406   1.405       .  A
C1405      C1410   1.410       .  A
C1406      C1407   1.410       .  A
C1406      H1415   1.084       .  S
C1407      C1408   1.421       .  A
C1407      S1411   1.800       .  S
C1408      C1409   1.412       .  A
C1409      C1410   1.400       .  A
C1409      H1416   1.084       .  S
C1410      S1412   1.805       .  S
S1411      H1414   1.407       .  S
S1412      H1413   1.406       .  S
C1417      C1418   1.409       .  A
C1417      C1422   1.415       .  A
C1418      C1419   1.406       .  A
C1418      H1427   1.083       .  S
C1419      C1420   1.413       .  A
C1419      S1423   1.802       .  S
C1420      C1421   1.405       .  A
C1421      C1422   1.399       .  A
C1421      H1428   1.084       .  S
C1422      S1424   1.805       .  S
S1423      H1426   1.406       .  S
S1424      H1425   1.407       .  S
C1429      C1430   1.400       .  A
C1429      C1434   1.416       .  A
C1430      C1431   1.395       .  A
C1430      H1439   1.085       .  S
C1431      C1432   1.423       .  A
C1431      S1435   1.801       .  S
C1432      C1433   1.408       .  A
C1433      C1434   1.404       .  A
C1433      H1440   1.084       .  S
C1434      S1436   1.804       .  S
S1435      H1438   1.407       .  S
S1436      H1437   1.406       .  S
C1441      C1442   1.399       .  A
C1441      C1446   1.413       .  A
C1442      C1443   1.400       .  A
C1442      H1451   1.084       .  S
C1443      C1444   1.417       .  A
C1443      S1447   1.804       .  S
C1444      C1445   1.399       .  A
C1445      C1446   1.396       .  A
C1445      H1452   1.085       .  S
C1446      S1448   1.797       .  S
S1447      H1450   1.407       .  S
S1448      H1449   1.406       .  S
C1453      C1454   1.400       .  A
C1453      C1458   1.412       .  A
C1454      C1455   1.403       .  A
C1454      H1463   1.084       .  S
C1455      C1456   1.422       .  A
C1455      S1459   1.804       .  S
C1456      C1457   1.404       .  A
C1457      C1458   1.393       .  A
C1457      H1464   1.083       .  S
C1458      S1460   1.801       .  S
S1459      H1462   1.407       .  S
S1460      H1461   1.405       .  S
C1465      C1466   1.402       .  A
C1465      C1470   1.407       .  A
C1466      C1467   1.403       .  A
C1466      H1475   1.083       .  S
C1467      C1468   1.418       .  A
C1467      S1471   1.799       .  S
C1468      C1469   1.410       .  A
C1469      C1470   1.392       .  A
C1469      H1476   1.083       .  S
C1470      S1472   1.806       .  S
S1471      H1474   1.401       .  S
S1472      H1473   1.406       .  S
C1477      C1478   1.404       .  A
C1477      C1482   1.410       .  A
C1478      C1479   1.401       .  A
C1478      H1487   1.084       .  S
C1479      C1480   1.419       .  A
C1479      S1483   1.801       .  S
C1480      C1481   1.410       .  A
C1481      C1482   1.398       .  A
C1481      H1488   1.083       .  S
C1482      S1484   1.801       .  S
S1483      H1486   1.408       .  S
S1484      H1485   1.406       .  S
C1489      C1490   1.399   1_565  A
C1489      C1494   1.410       .  A
C1490      C1491   1.392   1_545  A
C1490      H1499   1.084       .  S
C1491      C1492   1.411       .  A
C1491      S1495   1.805   1_565  S
C1492      C1493   1.402       .  A
C1493      C1494   1.399       .  A
C1493      H1500   1.084       .  S
C1494      S1496   1.802       .  S
S1495      H1498   1.406       .  S
S1496      H1497   1.406       .  S
C1501      C1502   1.404       .  A
C1501      C1506   1.415       .  A
C1502      C1503   1.400       .  A
C1502      H1511   1.084       .  S
C1503      C1504   1.414       .  A
C1503      S1507   1.805       .  S
C1504      C1505   1.403       .  A
C1505      C1506   1.405       .  A
C1505      H1512   1.083       .  S
C1506      S1508   1.808       .  S
S1507      H1510   1.407       .  S
S1508      H1509   1.407       .  S
C1513      C1514   1.409       .  A
C1513      C1518   1.424       .  A
C1514      C1515   1.400       .  A
C1514      H1523   1.082       .  S
C1515      C1516   1.412       .  A
C1515      S1519   1.799       .  S
C1516      C1517   1.398       .  A
C1517      C1518   1.400       .  A
C1517      H1524   1.081       .  S
C1518      S1520   1.805       .  S
S1519      H1522   1.405       .  S
S1520      H1521   1.407       .  S
C1525      C1526   1.404       .  A
C1525      C1530   1.414       .  A
C1526      C1527   1.404       .  A
C1526      H1535   1.083       .  S
C1527      C1528   1.416       .  A
C1527      S1531   1.802       .  S
C1528      C1529   1.405       .  A
C1529      C1530   1.401       .  A
C1529      H1536   1.084       .  S
C1530      S1532   1.805       .  S
S1531      H1534   1.407       .  S
S1532      H1533   1.406       .  S
C1537      C1538   1.396       .  A
C1537      C1542   1.412       .  A
C1538      C1539   1.396       .  A
C1538      H1547   1.084       .  S
C1539      C1540   1.419       .  A
C1539      S1543   1.809   1_655  S
C1540      C1541   1.406       .  A
C1541      C1542   1.403       .  A
C1541      H1548   1.084       .  S
C1542      S1544   1.805       .  S
S1543      H1546   1.407       .  S
S1544      H1545   1.403       .  S
C1549      C1550   1.406       .  A
C1549      C1554   1.416       .  A
C1550      C1551   1.401       .  A
C1550      H1559   1.084       .  S
C1551      C1552   1.415       .  A
C1551      S1555   1.803       .  S
C1552      C1553   1.407       .  A
C1553      C1554   1.404       .  A
C1553      H1560   1.084       .  S
C1554      S1556   1.799       .  S
S1555      H1558   1.406       .  S
S1556      H1557   1.406       .  S
C1561      C1562   1.399       .  A
C1561      C1566   1.413       .  A
C1562      C1563   1.406       .  A
C1562      H1571   1.081       .  S
C1563      C1564   1.420       .  A
C1563      S1567   1.809       .  S
C1564      C1565   1.403       .  A
C1565      C1566   1.398       .  A
C1565      H1572   1.084       .  S
C1566      S1568   1.801       .  S
S1567      H1570   1.407       .  S
S1568      H1569   1.404       .  S
C1573      C1574   1.401       .  A
C1573      C1578   1.406       .  A
C1574      C1575   1.392       .  A
C1574      H1583   1.083       .  S
C1575      C1576   1.410       .  A
C1575      S1579   1.805       .  S
C1576      C1577   1.408       .  A
C1577      C1578   1.400       .  A
C1577      H1584   1.082       .  S
C1578      S1580   1.805       .  S
S1579      H1582   1.407       .  S
S1580      H1581   1.404       .  S
C1585      C1586   1.405       .  A
C1585      C1590   1.414       .  A
C1586      C1587   1.405       .  A
C1586      H1595   1.083       .  S
C1587      C1588   1.417       .  A
C1587      S1591   1.808       .  S
C1588      C1589   1.405       .  A
C1589      C1590   1.399       .  A
C1589      H1596   1.085       .  S
C1590      S1592   1.801       .  S
S1591      H1594   1.407       .  S
S1592      H1593   1.407       .  S
C1597      C1598   1.406       .  A
C1597      C1602   1.421       .  A
C1598      C1599   1.395       .  A
C1598      H1607   1.084       .  S
C1599      C1600   1.411       .  A
C1599      S1603   1.805       .  S
C1600      C1601   1.400       .  A
C1601      C1602   1.401       .  A
C1601      H1608   1.085       .  S
C1602      S1604   1.800   1_565  S
S1603      H1606   1.407       .  S
S1604      H1605   1.408       .  S
C1609      C1610   1.406       .  A
C1609      C1614   1.410       .  A
C1610      C1611   1.405       .  A
C1610      H1619   1.084       .  S
C1611      C1612   1.414       .  A
C1611      S1615   1.802       .  S
C1612      C1613   1.406       .  A
C1613      C1614   1.396       .  A
C1613      H1620   1.084       .  S
C1614      S1616   1.801       .  S
S1615      H1618   1.406       .  S
S1616      H1617   1.405       .  S
C1621      C1622   1.407       .  A
C1621      C1626   1.417       .  A
C1622      C1623   1.406       .  A
C1622      H1631   1.083       .  S
C1623      C1624   1.416       .  A
C1623      S1627   1.803       .  S
C1624      C1625   1.405       .  A
C1625      C1626   1.405       .  A
C1625      H1632   1.084       .  S
C1626      S1628   1.802   1_545  S
S1627      H1630   1.406       .  S
S1628      H1629   1.407       .  S
C1633      C1634   1.404       .  A
C1633      C1638   1.410       .  A
C1634      C1635   1.403       .  A
C1634      H1643   1.084       .  S
C1635      C1636   1.415       .  A
C1635      S1639   1.801       .  S
C1636      C1637   1.404       .  A
C1637      C1638   1.393       .  A
C1637      H1644   1.085       .  S
C1638      S1640   1.801       .  S
S1639      H1642   1.406       .  S
S1640      H1641   1.405       .  S
C1645      C1646   1.398       .  A
C1645      C1650   1.410       .  A
C1646      C1647   1.398       .  A
C1646      H1655   1.084       .  S
C1647      C1648   1.422       .  A
C1647      S1651   1.801       .  S
C1648      C1649   1.407       .  A
C1649      C1650   1.399       .  A
C1649      H1656   1.083   1_565  S
C1650      S1652   1.803   1_566  S
S1651      H1654   1.408       .  S
S1652      H1653   1.405       .  S
C1657      C1658   1.412       .  A
C1657      C1662   1.418       .  A
C1658      C1659   1.405       .  A
C1658      H1667   1.083       .  S
C1659      C1660   1.413       .  A
C1659      S1663   1.802       .  S
C1660      C1661   1.405       .  A
C1661      C1662   1.395       .  A
C1661      H1668   1.083       .  S
C1662      S1664   1.803       .  S
S1663      H1666   1.406       .  S
S1664      H1665   1.408       .  S
C1669      C1670   1.407       .  A
C1669      C1674   1.421       .  A
C1670      C1671   1.390       .  A
C1670      H1679   1.083       .  S
C1671      C1672   1.407       .  A
C1671      S1675   1.806       .  S
C1672      C1673   1.401       .  A
C1673      C1674   1.404       .  A
C1673      H1680   1.084       .  S
C1674      S1676   1.799       .  S
S1675      H1678   1.406       .  S
S1676      H1677   1.399       .  S
C1681      C1682   1.409       .  A
C1681      C1686   1.420       .  A
C1682      C1683   1.395       .  A
C1682      H1691   1.082       .  S
C1683      C1684   1.410       .  A
C1683      S1687   1.806       .  S
C1684      C1685   1.403       .  A
C1685      C1686   1.406       .  A
C1685      H1692   1.083       .  S
C1686      S1688   1.800       .  S
S1687      H1690   1.406       .  S
S1688      H1689   1.403       .  S
C1693      C1694   1.402       .  A
C1693      C1698   1.412       .  A
C1694      C1695   1.402       .  A
C1694      H1703   1.085       .  S
C1695      C1696   1.420       .  A
C1695      S1699   1.803       .  S
C1696      C1697   1.406       .  A
C1697      C1698   1.401       .  A
C1697      H1704   1.084       .  S
C1698      S1700   1.804       .  S
S1699      H1702   1.408       .  S
S1700      H1701   1.407       .  S
C1705      C1706   1.402       .  A
C1705      C1710   1.420       .  A
C1706      C1707   1.393       .  A
C1706      H1715   1.083       .  S
C1707      C1708   1.411       .  A
C1707      S1711   1.800       .  S
C1708      C1709   1.399       .  A
C1709      C1710   1.401       .  A
C1709      H1716   1.084       .  S
C1710      S1712   1.805       .  S
S1711      H1714   1.405       .  S
S1712      H1713   1.407       .  S
C1717      C1718   1.405       .  A
C1717      C1722   1.415       .  A
C1718      C1719   1.401       .  A
C1718      H1727   1.084       .  S
C1719      C1720   1.417       .  A
C1719      S1723   1.805       .  S
C1720      C1721   1.405       .  A
C1721      C1722   1.400       .  A
C1721      H1728   1.084       .  S
C1722      S1724   1.803       .  S
S1723      H1726   1.406       .  S
S1724      H1725   1.407       .  S
C1729      C1730   1.410       .  A
C1729      C1734   1.413       .  A
C1730      C1731   1.401       .  A
C1730      H1739   1.084       .  S
C1731      C1732   1.409       .  A
C1731      S1735   1.809       .  S
C1732      C1733   1.401       .  A
C1733      C1734   1.395       .  A
C1733      H1740   1.084       .  S
C1734      S1736   1.804       .  S
S1735      H1738   1.403       .  S
S1736      H1737   1.406       .  S
C1741      C1742   1.404       .  A
C1741      C1746   1.421       .  A
C1742      C1743   1.398       .  A
C1742      H1751   1.083       .  S
C1743      C1744   1.413       .  A
C1743      S1747   1.801       .  S
C1744      C1745   1.399       .  A
C1745      C1746   1.402       .  A
C1745      H1752   1.083       .  S
C1746      S1748   1.805       .  S
S1747      H1750   1.404       .  S
S1748      H1749   1.407       .  S
C1753      C1754   1.406       .  A
C1753      C1758   1.416       .  A
C1754      C1755   1.404       .  A
C1754      H1763   1.084       .  S
C1755      C1756   1.418       .  A
C1755      S1759   1.799       .  S
C1756      C1757   1.408       .  A
C1757      C1758   1.402       .  A
C1757      H1764   1.084       .  S
C1758      S1760   1.804       .  S
S1759      H1762   1.407       .  S
S1760      H1761   1.407       .  S
C1765      C1766   1.408       .  A
C1765      C1770   1.414       .  A
C1766      C1767   1.401       .  A
C1766      H1775   1.084       .  S
C1767      C1768   1.411       .  A
C1767      S1771   1.804       .  S
C1768      C1769   1.403       .  A
C1769      C1770   1.397       .  A
C1769      H1776   1.084       .  S
C1770      S1772   1.799       .  S
S1771      H1774   1.406       .  S
S1772      H1773   1.408       .  S
C1777      C1778   1.405       .  A
C1777      C1782   1.408       .  A
C1778      C1779   1.404       .  A
C1778      H1787   1.083       .  S
C1779      C1780   1.414       .  A
C1779      S1783   1.800       .  S
C1780      C1781   1.410       .  A
C1781      C1782   1.394       .  A
C1781      H1788   1.083       .  S
C1782      S1784   1.805       .  S
S1783      H1786   1.406       .  S
S1784      H1785   1.406       .  S
C1789      C1790   1.408       .  A
C1789      C1794   1.412       .  A
C1790      C1791   1.389       .  A
C1790      H1799   1.085       .  S
C1791      C1792   1.405       .  A
C1791      S1795   1.806       .  S
C1792      C1793   1.404       .  A
C1793      C1794   1.403       .  A
C1793      H1800   1.084       .  S
C1794      S1796   1.801       .  S
S1795      H1798   1.405       .  S
S1796      H1797   1.407   1_565  S
C1801      C1802   1.405       .  A
C1801      C1806   1.415   1_565  A
C1802      C1803   1.401       .  A
C1802      H1811   1.084       .  S
C1803      C1804   1.415       .  A
C1803      S1807   1.802       .  S
C1804      C1805   1.406       .  A
C1805      C1806   1.401   1_565  A
C1805      H1812   1.084   1_565  S
C1806      S1808   1.803       .  S
S1807      H1810   1.406       .  S
S1808      H1809   1.408       .  S
C1813      C1814   1.406       .  A
C1813      C1818   1.419       .  A
C1814      C1815   1.398       .  A
C1814      H1823   1.084       .  S
C1815      C1816   1.413   1_554  A
C1815      S1819   1.805       .  S
C1816      C1817   1.402       .  A
C1817      C1818   1.403   1_556  A
C1817      H1824   1.084       .  S
C1818      S1820   1.802   1_545  S
S1819      H1822   1.407   1_554  S
S1820      H1821   1.408       .  S
C1825      C1826   1.405       .  A
C1825      C1830   1.411       .  A
C1826      C1827   1.403       .  A
C1826      H1835   1.084       .  S
C1827      C1828   1.411       .  A
C1827      S1831   1.804       .  S
C1828      C1829   1.402       .  A
C1829      C1830   1.395       .  A
C1829      H1836   1.085   1_545  S
C1830      S1832   1.805       .  S
S1831      H1834   1.405       .  S
S1832      H1833   1.406       .  S
C1837      C1838   1.410       .  A
C1837      C1842   1.416       .  A
C1838      C1839   1.404       .  A
C1838      H1847   1.084       .  S
C1839      C1840   1.412       .  A
C1839      S1843   1.803       .  S
C1840      C1841   1.403       .  A
C1841      C1842   1.393       .  A
C1841      H1848   1.084       .  S
C1842      S1844   1.804       .  S
S1843      H1846   1.406       .  S
S1844      H1845   1.408       .  S
C1849      C1850   1.404       .  A
C1849      C1854   1.419       .  A
C1850      C1851   1.399       .  A
C1850      H1859   1.084       .  S
C1851      C1852   1.417       .  A
C1851      S1855   1.806       .  S
C1852      C1853   1.404       .  A
C1853      C1854   1.407       .  A
C1853      H1860   1.084       .  S
C1854      S1856   1.804       .  S
S1855      H1858   1.399       .  S
S1856      H1857   1.407       .  S
C1861      C1862   1.400       .  A
C1861      C1866   1.412       .  A
C1862      C1863   1.396       .  A
C1862      H1871   1.085       .  S
C1863      C1864   1.415       .  A
C1863      S1867   1.805       .  S
C1864      C1865   1.403       .  A
C1865      C1866   1.402       .  A
C1865      H1872   1.084       .  S
C1866      S1868   1.801       .  S
S1867      H1870   1.407       .  S
S1868      H1869   1.407       .  S
C1873      C1874   1.405       .  A
C1873      C1878   1.413       .  A
C1874      C1875   1.403       .  A
C1874      H1883   1.083       .  S
C1875      C1876   1.415       .  A
C1875      S1879   1.804       .  S
C1876      C1877   1.407       .  A
C1877      C1878   1.401       .  A
C1877      H1884   1.083       .  S
C1878      S1880   1.803       .  S
S1879      H1882   1.407       .  S
S1880      H1881   1.407       .  S
C1885      C1886   1.397       .  A
C1885      C1890   1.410       .  A
C1886      C1887   1.402       .  A
C1886      H1895   1.083       .  S
C1887      C1888   1.421       .  A
C1887      S1891   1.809       .  S
C1888      C1889   1.406       .  A
C1889      C1890   1.398       .  A
C1889      H1896   1.083       .  S
C1890      S1892   1.804       .  S
S1891      H1894   1.407       .  S
S1892      H1893   1.406       .  S
C1897      C1898   1.397       .  A
C1897      C1902   1.414       .  A
C1898      C1899   1.405       .  A
C1898      H1907   1.082       .  S
C1899      C1900   1.424       .  A
C1899      S1903   1.811       .  S
C1900      C1901   1.405       .  A
C1901      C1902   1.399       .  A
C1901      H1908   1.082       .  S
C1902      S1904   1.799       .  S
S1903      H1906   1.407       .  S
S1904      H1905   1.406       .  S
C1909      C1910   1.406       .  A
C1909      C1914   1.418       .  A
C1910      C1911   1.395       .  A
C1910      H1919   1.068       .  S
C1911      C1912   1.408       .  A
C1911      S1915   1.806       .  S
C1912      C1913   1.402       .  A
C1913      C1914   1.403       .  A
C1913      H1920   1.082       .  S
C1914      S1916   1.799       .  S
S1915      H1918   1.406       .  S
S1916      H1917   1.402       .  S
C1921      C1922   1.403       .  A
C1921      C1926   1.417       .  A
C1922      C1923   1.407       .  A
C1922      H1931   1.085       .  S
C1923      C1924   1.419       .  A
C1923      S1927   1.804       .  S
C1924      C1925   1.402       .  A
C1925      C1926   1.398       .  A
C1925      H1932   1.085       .  S
C1926      S1928   1.803       .  S
S1927      H1930   1.406       .  S
S1928      H1929   1.402       .  S
C1933      C1934   1.406       .  A
C1933      C1938   1.422       .  A
C1934      C1935   1.402       .  A
C1934      H1943   1.084   1_655  S
C1935      C1936   1.414       .  A
C1935      S1939   1.805   1_655  S
C1936      C1937   1.399       .  A
C1937      C1938   1.406       .  A
C1937      H1944   1.083       .  S
C1938      S1940   1.809       .  S
S1939      H1942   1.405   1_455  S
S1940      H1941   1.406       .  S
C1945      C1946   1.396       .  A
C1945      C1950   1.411       .  A
C1946      C1947   1.389       .  A
C1946      H1955   1.086       .  S
C1947      C1948   1.423       .  A
C1947      S1951   1.804       .  S
C1948      C1949   1.410       .  A
C1949      C1950   1.406       .  A
C1949      H1956   1.084       .  S
C1950      S1952   1.805       .  S
S1951      H1954   1.398       .  S
S1952      H1953   1.404       .  S
C1957      C1958   1.399       .  A
C1957      C1962   1.408       .  A
C1958      C1959   1.400       .  A
C1958      H1967   1.084       .  S
C1959      C1960   1.421       .  A
C1959      S1963   1.801   1_655  S
C1960      C1961   1.410       .  A
C1961      C1962   1.399       .  A
C1961      H1968   1.083       .  S
C1962      S1964   1.804       .  S
S1963      H1966   1.408   1_455  S
S1964      H1965   1.406       .  S
C1969      C1970   1.402       .  A
C1969      C1974   1.419       .  A
C1970      C1971   1.398       .  A
C1970      H1979   1.083       .  S
C1971      C1972   1.414       .  A
C1971      S1975   1.806       .  S
C1972      C1973   1.402       .  A
C1973      C1974   1.405       .  A
C1973      H1980   1.084       .  S
C1974      S1976   1.803       .  S
S1975      H1978   1.406       .  S
S1976      H1977   1.407       .  S
C1981      C1982   1.399       .  A
C1981      C1986   1.413       .  A
C1982      C1983   1.402       .  A
C1982      H1991   1.084       .  S
C1983      C1984   1.422       .  A
C1983      S1987   1.805       .  S
C1984      C1985   1.402       .  A
C1985      C1986   1.395       .  A
C1985      H1992   1.083       .  S
C1986      S1988   1.801       .  S
S1987      H1990   1.407       .  S
S1988      H1989   1.404       .  S
C1993      C1994   1.402       .  A
C1993      C1998   1.423       .  A
C1994      C1995   1.399       .  A
C1994      H2003   1.084       .  S
C1995      C1996   1.419       .  A
C1995      S1999   1.802       .  S
C1996      C1997   1.404       .  A
C1997      C1998   1.411       .  A
C1997      H2004   1.084       .  S
C1998      S2000   1.804       .  S
S1999      H2002   1.403       .  S
S2000      H2001   1.407       .  S
C2005      C2006   1.403       .  A
C2005      C2010   1.411       .  A
C2006      C2007   1.405       .  A
C2006      H2015   1.084       .  S
C2007      C2008   1.419       .  A
C2007      S2011   1.799   1_455  S
C2008      C2009   1.407       .  A
C2009      C2010   1.398       .  A
C2009      H2016   1.084       .  S
C2010      S2012   1.804       .  S
S2011      H2014   1.408       .  S
S2012      H2013   1.404       .  S
