geometry optimzed in LAMMPS
_audit_creation_date              2020-11-30 
_audit_creation_method            'lammps2cif' 
_symmetry_space_group_name_H-M    'P1' 
_symmetry_Int_Tables_number       1 
_symmetry_cell_setting            triclinic 
loop_ 
_symmetry_equiv_pos_as_xyz 
  x,y,z 
_cell_length_a                    44.69039405 
_cell_length_b                    44.39776713006052 
_cell_length_c                    75.92331341222985 
_cell_angle_alpha                 89.71737869215617 
_cell_angle_beta                  90.09761043012037 
_cell_angle_gamma                 120.24132974460774 
loop_ 
_atom_site_label 
_atom_site_type_symbol 
_atom_site_fract_x 
_atom_site_fract_y 
_atom_site_fract_z 
_atom_site_charge 
O1          O  0.27566205  0.17102490  0.80876733    -0.76000
C2          C  0.29208627  0.08271744  0.80457874     0.85000
O3          O  0.28187113  0.13803340  0.86871791    -0.77100
O4          O  0.37371436  0.12065322  0.84507632    -0.78600
O5          O  0.39994588  0.22095301  0.80850602    -0.78400
O6          O  0.32534596  0.22185674  0.80828398    -0.77000
Zn7        Zn  0.28456263  0.13874618  0.82388508     1.55700
O8          O  0.39904928  0.17019809  0.80881495    -0.78400
Cd9        Cd  0.35755581  0.21166636  0.82364930     1.59700
Cd10       Cd  0.33225723  0.16278752  0.85909186     1.59600
O11         O  0.37540321  0.24676911  0.84431290    -0.78400
O12         O  0.33209027  0.16245533  0.83262895    -1.88900
Cd13       Cd  0.35640059  0.13773835  0.82412066     1.59900
O14         O  0.35801277  0.21354351  0.86856647    -0.78400
O15         O  0.32352988  0.09489897  0.80909697    -0.77000
C16         C  0.25278580  0.12365897  0.86080507     0.85500
C17         C  0.29377353  0.20268565  0.80385087     0.85200
O18         O  0.27457664  0.09676289  0.80923193    -0.76000
C19         C  0.41249981  0.20194171  0.80406602     0.86000
O20         O  0.25039763  0.12221047  0.84408114    -0.76100
C21         C  0.37340573  0.24326436  0.86100131     0.86100
C22         C  0.37197063  0.12263202  0.86173019     0.86400
O23         O  0.35713965  0.13742845  0.86906564    -0.78500
C24         C  0.16588727  0.32879547  0.73895015     0.00000
C25         C  0.99993788  0.99697372  0.92729194     0.00000
O26         O  0.43529642  0.48999536  0.52309351    -0.76000
C27         C  0.04071969  0.07838708  0.52761214     0.85000
O28         O  0.47528099  0.02245737  0.46346784    -0.77100
O29         O  0.08407495  0.04031452  0.48747468    -0.78600
O30         O  0.00980040  0.43989823  0.52414065    -0.78400
O31         O  0.43413901  0.43918801  0.52400784    -0.77000
Zn32       Zn  0.47702192  0.02227151  0.50831459     1.55700
O33         O  0.05993065  0.49042718  0.52361626    -0.78400
Cd34       Cd  0.47674815  0.44926147  0.50893686     1.59700
Cd35       Cd  0.50061641  0.49770966  0.47335840     1.59600
O36         O  0.45923216  0.41402061  0.48838991    -0.78400
O37         O  0.50069012  0.49834428  0.49980779    -1.88900
Cd38       Cd  0.04970566  0.02298489  0.50836283     1.59900
O39         O  0.47529860  0.44695540  0.46403274    -0.78400
O40         O  0.05978728  0.06592776  0.52325699    -0.77000
C41         C  0.46086548  0.03720470  0.47123015     0.85500
C42         C  0.42155512  0.45834568  0.52806793     0.85200
O43         O  0.00912257  0.06439747  0.52295392    -0.76000
C44         C  0.04150127  0.45874577  0.52845150     0.86000
O45         O  0.45992764  0.03891717  0.48793348    -0.76100
C46         C  0.46069434  0.41734757  0.47169885     0.86100
C47         C  0.08039486  0.03819080  0.47081984     0.86400
O48         O  0.05078940  0.02302286  0.46341962    -0.78500
C49         C  0.33399495  0.16382587  0.40563411     0.00000
C50         C  0.16844925  0.33213540  0.59373002     0.00000
O51         O  0.23358130  0.39318109  0.14307228    -0.76000
C52         C  0.12765629  0.37371520  0.13897742     0.85000
O53         O  0.19312209  0.38348167  0.20284991    -0.77100
O54         O  0.08503266  0.29005010  0.17857443    -0.78600
O55         O  0.16091965  0.26789331  0.14200792    -0.78400
O56         O  0.23576164  0.34408189  0.14270872    -0.77000
Zn57       Zn  0.19179724  0.38240690  0.15798639     1.55700
O58         O  0.11047746  0.26695892  0.14218835    -0.78400
Cd59       Cd  0.19308335  0.31026848  0.15753758     1.59700
Cd60       Cd  0.16828124  0.33329027  0.19293372     1.59600
O61         O  0.21027964  0.29236241  0.17815692    -0.78400
O62         O  0.16851097  0.33435135  0.16649289    -1.88900
Cd63       Cd  0.11962700  0.30887554  0.15778209     1.59900
O64         O  0.19360128  0.30820275  0.20243403    -0.78400
O65         O  0.10889854  0.34172688  0.14318779    -0.77000
C66         C  0.20745090  0.41296404  0.19508578     0.85500
C67         C  0.24780019  0.37583838  0.13835265     0.85200
O68         O  0.15926362  0.39187492  0.14357438    -0.76000
C69         C  0.12935612  0.25451866  0.13741491     0.86000
O70         O  0.20858996  0.41593108  0.17838431    -0.76100
C71         C  0.20844582  0.29371031  0.19483596     0.86100
C72         C  0.08857211  0.29186249  0.19524007     0.86400
O73         O  0.11808726  0.30732473  0.20271038    -0.78500
C74         C  0.00074629  0.99997351  0.07268692     0.00000
C75         C  0.33520284  0.16716283  0.26039937     0.00000
C76         C  0.40253547  0.45258387  0.09348865     0.19500
C77         C  0.38677300  0.47236214  0.09698386    -0.09600
C78         C  0.35457857  0.45700726  0.10543540    -0.10400
C79         C  0.33802892  0.42181143  0.11042582     0.21100
C80         C  0.35366137  0.40196571  0.10678871    -0.12500
C81         C  0.38584522  0.41731617  0.09834162    -0.10800
C82         C  0.30552585  0.40625400  0.11970825     0.02000
C83         C  0.27883254  0.39272498  0.12796249    -0.30800
C84         C  0.43627964  0.46872356  0.08545167     0.03400
C85         C  0.46510194  0.48260089  0.07932150    -0.32400
H86         H  0.39952143  0.49969231  0.09334525     0.14500
H87         H  0.34277968  0.47262061  0.10823055     0.14300
H88         H  0.34114319  0.37475513  0.11063849     0.14200
H89         H  0.39785947  0.40182007  0.09576311     0.13200
C90         C  0.05105700  0.09948546  0.09240388     0.19500
C91         C  0.08688533  0.11677903  0.09529349    -0.09600
C92         C  0.10342592  0.14925897  0.10359826    -0.10400
C93         C  0.08419608  0.16456040  0.10905074     0.21100
C94         C  0.04841959  0.14740229  0.10601659    -0.12500
C95         C  0.03188419  0.11493109  0.09771511    -0.10800
C96         C  0.10088451  0.19721071  0.11831125     0.02000
C97         C  0.11424531  0.22382120  0.12669806    -0.30800
C98         C  0.03378809  0.06539480  0.08457904     0.03400
C99         C  0.01901130  0.03619962  0.07874204    -0.32400
H100        H  0.10192714  0.10498829  0.09131535     0.14500
H101        H  0.13107605  0.16222534  0.10594863     0.14300
H102        H  0.03327785  0.15892427  0.11024860     0.14200
H103        H  0.00414274  0.10170647  0.09562263     0.13200
C104        C  0.04922902  0.45129754  0.09491855     0.19500
C105        C  0.08097276  0.45649354  0.08864994    -0.09600
C106        C  0.09731215  0.44068341  0.09721206    -0.10400
C107        C  0.08197570  0.41963863  0.11207832     0.21100
C108        C  0.05022996  0.41444848  0.11833435    -0.12500
C109        C  0.03390375  0.43024456  0.10977854    -0.10800
C110        C  0.09883054  0.40356946  0.12102508     0.02000
C111        C  0.11238613  0.39000199  0.12894324    -0.30800
C112        C  0.03257317  0.46792054  0.08632279     0.03400
C113        C  0.01831135  0.48213046  0.07972759    -0.32400
H114        H  0.09310373  0.47281150  0.07720449     0.14500
H115        H  0.12188483  0.44492744  0.09228255     0.14300
H116        H  0.03816773  0.39828527  0.12983647     0.14200
H117        H  0.00941815  0.42613877  0.11477173     0.13200
C118        C  0.28605452  0.21634891  0.23961902     0.19500
C119        C  0.25172019  0.19628848  0.23387301    -0.09600
C120        C  0.23542513  0.21234628  0.22553990    -0.10400
C121        C  0.25340298  0.24853124  0.22292047     0.21100
C122        C  0.28764836  0.26862527  0.22879377    -0.12500
C123        C  0.30394515  0.25256445  0.23712801    -0.10800
C124        C  0.23709602  0.26485605  0.21371536     0.02000
C125        C  0.22379058  0.27822609  0.20542341    -0.30800
C126        C  0.30320690  0.19965699  0.24758572     0.03400
C127        C  0.31767328  0.18526263  0.25370464    -0.32400
H128        H  0.23769532  0.16824596  0.23567639     0.14500
H129        H  0.20898648  0.19654853  0.22098748     0.14300
H130        H  0.30183178  0.29660820  0.22677179     0.14200
H131        H  0.33054173  0.26829661  0.24146309     0.13200
C132        C  0.28606424  0.06842863  0.23977032     0.19500
C133        C  0.30504208  0.05938615  0.22849425    -0.09600
C134        C  0.28878355  0.52705921  0.22006678    -0.10400
C135        C  0.25347159  0.50364472  0.22285850     0.21100
C136        C  0.23454051  0.01256437  0.23424421    -0.12500
C137        C  0.25080812  0.04491524  0.24268491    -0.10800
C138        C  0.23661884  0.47090016  0.21369513     0.02000
C139        C  0.22301796  0.44408768  0.20547921    -0.30800
C140        C  0.30262400  0.10222383  0.24789090     0.03400
C141        C  0.31705827  0.13121144  0.25397062    -0.32400
H142        H  0.33228595  0.07743313  0.22610121     0.14500
H143        H  0.30365213  0.52045973  0.21125962     0.14300
H144        H  0.20720249  0.99468111  0.23646198     0.14200
H145        H  0.23587210  0.05171169  0.25133190     0.13200
C146        C  0.99852310  0.24589089  0.22330046     0.19500
C147        C  0.49067618  0.26494918  0.23521140    -0.09600
C148        C  0.45826206  0.24929178  0.24345852    -0.10400
C149        C  0.43358447  0.21452839  0.23982069     0.21100
C150        C  0.44154295  0.19540227  0.22802018    -0.12500
C151        C  0.97393267  0.21104725  0.21977944    -0.10800
C152        C  0.39980807  0.19866734  0.24780751     0.02000
C153        C  0.37093778  0.18481670  0.25387586    -0.30800
C154        C  0.03127678  0.26232764  0.21423034     0.03400
C155        C  0.05793473  0.27591764  0.20594607    -0.32400
H156        H  0.50944469  0.29194834  0.23797583     0.14500
H157        H  0.45233470  0.26434634  0.25252280     0.14300
H158        H  0.42261351  0.16853815  0.22507279     0.14200
H159        H  0.97966778  0.19610921  0.21053908     0.13200
C160        C  0.33447639  0.16662029  0.31454633     0.19500
C161        C  0.30438113  0.14293257  0.32364642    -0.09600
C162        C  0.30411648  0.14228032  0.34207172    -0.10400
C163        C  0.33394990  0.16531131  0.35147455     0.21100
C164        C  0.36401053  0.18907307  0.34237231    -0.12500
C165        C  0.36427508  0.18972507  0.32394791    -0.10800
C166        C  0.33376515  0.16452482  0.37043252     0.02000
C167        C  0.33378412  0.16404075  0.38632466    -0.30800
C168        C  0.33483499  0.16705989  0.29559096     0.03400
C169        C  0.33507261  0.16720871  0.27970133    -0.32400
H170        H  0.28119529  0.12495188  0.31650671     0.14500
H171        H  0.28072564  0.12381505  0.34897389     0.14300
H172        H  0.38721700  0.20701239  0.34950990     0.14200
H173        H  0.38768481  0.20814749  0.31704466     0.13200
C174        C  0.23564818  0.11504227  0.42638591     0.19500
C175        C  0.22054177  0.13488289  0.43111205    -0.09600
C176        C  0.18807997  0.11890208  0.43930991    -0.10400
C177        C  0.17056711  0.08300195  0.44281661     0.21100
C178        C  0.18560573  0.06313212  0.43801109    -0.12500
C179        C  0.21807207  0.07911589  0.42981277    -0.10800
C180        C  0.13774098  0.06679018  0.45184071     0.02000
C181        C  0.11100199  0.05351650  0.46006894    -0.30800
C182        C  0.26951302  0.13169527  0.41844587     0.03400
C183        C  0.29835391  0.14600184  0.41231409    -0.32400
H184        H  0.23396787  0.16270500  0.42859302     0.14500
H185        H  0.17679038  0.13455768  0.44304674     0.14300
H186        H  0.17238779  0.03539078  0.44073787     0.14200
H187        H  0.22957634  0.06354966  0.42628318     0.13200
C188        C  0.38430671  0.26257000  0.42633334     0.19500
C189        C  0.41294943  0.27198073  0.43725918    -0.09600
C190        C  0.42893434  0.30419502  0.44580012    -0.10400
C191        C  0.41635999  0.32716768  0.44345942     0.21100
C192        C  0.38792144  0.31792183  0.43238857    -0.12500
C193        C  0.37191896  0.28567282  0.42383984    -0.10800
C194        C  0.43212167  0.35973885  0.45279898     0.02000
C195        C  0.44525183  0.38639133  0.46115860    -0.30800
C196        C  0.36699894  0.22874506  0.41821937     0.03400
C197        C  0.35223632  0.19973547  0.41215149    -0.32400
H198        H  0.42266257  0.25426558  0.43932753     0.14500
H199        H  0.45084535  0.31103352  0.45436187     0.14300
H200        H  0.37792945  0.33544885  0.43051694     0.14200
H201        H  0.34971058  0.27860294  0.41546629     0.13200
C202        C  0.41506357  0.08173963  0.44320585     0.19500
C203        C  0.37928338  0.06304202  0.44013380    -0.09600
C204        C  0.36316082  0.07913520  0.43164341    -0.10400
C205        C  0.38274871  0.11399483  0.42618236     0.21100
C206        C  0.41857190  0.13259472  0.42911086    -0.12500
C207        C  0.43469404  0.11650300  0.43759976    -0.10800
C208        C  0.36594010  0.13100593  0.41814569     0.02000
C209        C  0.35163754  0.14563234  0.41208478    -0.30800
C210        C  0.43145771  0.06561020  0.45254378     0.03400
C211        C  0.44502676  0.05247395  0.46082782    -0.32400
H212        H  0.36382767  0.03618492  0.44445921     0.14500
H213        H  0.33542502  0.06455148  0.42951257     0.14300
H214        H  0.43394756  0.15960408  0.42501023     0.14200
H215        H  0.46235248  0.13124352  0.43995326     0.13200
C216        C  0.33087508  0.41478114  0.55561831     0.19500
C217        C  0.30872266  0.42833381  0.55362314    -0.09600
C218        C  0.27657555  0.41235704  0.56212966    -0.10400
C219        C  0.26644763  0.38275968  0.57266670     0.21100
C220        C  0.28867490  0.36932666  0.57474737    -0.12500
C221        C  0.32082516  0.38530442  0.56624048    -0.10800
C222        C  0.23284672  0.36557497  0.58087062     0.02000
C223        C  0.20409897  0.35067237  0.58709834    -0.30800
C224        C  0.36352154  0.43063712  0.54645642     0.03400
C225        C  0.39037679  0.44352752  0.53834973    -0.32400
H226        H  0.31617924  0.45104369  0.54539411     0.14500
H227        H  0.25951772  0.42286572  0.56037061     0.14300
H228        H  0.28102795  0.34636241  0.58280373     0.14200
H229        H  0.33769732  0.37453884  0.56782744     0.13200
C230        C  0.11930760  0.23374709  0.57255112     0.19500
C231        C  0.13879525  0.21978129  0.56568317    -0.09600
C232        C  0.12221113  0.18754744  0.55713856    -0.10400
C233        C  0.08607027  0.16914117  0.55541549     0.21100
C234        C  0.06657217  0.18300155  0.56239103    -0.12500
C235        C  0.08315732  0.21523538  0.57093665    -0.10800
C236        C  0.06914323  0.13648661  0.54613709     0.02000
C237        C  0.05563817  0.10963877  0.53792981    -0.30800
C238        C  0.13643230  0.26750108  0.58075706     0.03400
C239        C  0.15081125  0.29635522  0.58702027    -0.32400
H240        H  0.16677075  0.23393374  0.56679223     0.14500
H241        H  0.13755913  0.17712990  0.55175146     0.14300
H242        H  0.03863178  0.16905391  0.56109256     0.13600
H243        H  0.06785015  0.22585940  0.57613517     0.13200
C244        C  0.08711248  0.41420602  0.55658402     0.19500
C245        C  0.12320444  0.43192773  0.55848225    -0.09600
C246        C  0.13923305  0.41569784  0.56691630    -0.10400
C247        C  0.11924205  0.38168273  0.57349063     0.21100
C248        C  0.08312600  0.36407932  0.57174953    -0.12500
C249        C  0.06709298  0.38031234  0.56331390    -0.10800
C250        C  0.13589949  0.36446021  0.58143152     0.02000
C251        C  0.15033524  0.34990009  0.58738744    -0.30800
C252        C  0.07075088  0.43037036  0.54726481     0.03400
C253        C  0.05724324  0.44352208  0.53895060    -0.32400
H254        H  0.13894601  0.45809400  0.55327760     0.14500
H255        H  0.16719156  0.42948749  0.56812825     0.14300
H256        H  0.06743768  0.33771774  0.57672121     0.14200
H257        H  0.03917828  0.36632633  0.56186690     0.13200
C258        C  0.99985043  0.99762706  0.01849765     0.19500
C259        C  0.01743311  0.98378738  0.00940448    -0.09600
C260        C  0.01731955  0.98338814  0.99097078    -0.10400
C261        C  0.99962259  0.99682770  0.98152961     0.21100
C262        C  0.48196521  0.51059485  0.99062639    -0.12500
C263        C  0.48207886  0.51099392  0.00906068    -0.10800
C264        C  0.99978908  0.99673031  0.96254224     0.02000
C265        C  0.99995242  0.99680774  0.94663227    -0.30800
C266        C  0.00023142  0.99832591  0.03747250     0.03400
C267        C  0.00056180  0.99904136  0.05337020    -0.32400
H268        H  0.03128158  0.97340637  0.01655562     0.14500
H269        H  0.03108401  0.97270562  0.98408910     0.14300
H270        H  0.46821265  0.52108333  0.98347678     0.14200
H271        H  0.46841200  0.52178250  0.01594425     0.13200
C272        C  0.16817351  0.33132012  0.64788873     0.19500
C273        C  0.13693679  0.31953147  0.65698396    -0.09600
C274        C  0.13654304  0.31920346  0.67540550    -0.10400
C275        C  0.16738333  0.33066199  0.68481478     0.21100
C276        C  0.19864642  0.34254715  0.67572561    -0.12500
C277        C  0.19904058  0.34287535  0.65729782    -0.10800
C278        C  0.16689343  0.33005758  0.70376631     0.02000
C279        C  0.16638623  0.32943486  0.71965226    -0.30800
C280        C  0.16850563  0.33153207  0.62893032     0.03400
C281        C  0.16856024  0.33171992  0.61303764    -0.32400
H282        H  0.11292575  0.31056701  0.64984206     0.14500
H283        H  0.11223058  0.30997309  0.68230223     0.14300
H284        H  0.22264667  0.35147685  0.68287295     0.14200
H285        H  0.22334476  0.35207180  0.65039891     0.13200
C286        C  0.41947771  0.33324564  0.88955904     0.19500
C287        C  0.45570439  0.35354643  0.89002336    -0.09600
C288        C  0.47180192  0.38583217  0.89854113    -0.10400
C289        C  0.45176861  0.39800146  0.90664536     0.21100
C290        C  0.41555378  0.37751816  0.90636720    -0.12500
C291        C  0.39945352  0.34522797  0.89784890    -0.10800
C292        C  0.46833064  0.43198191  0.91466829     0.02000
C293        C  0.48242597  0.46102860  0.92073654    -0.30800
C294        C  0.40289979  0.30073547  0.88009751     0.03400
C295        C  0.38923932  0.27414441  0.87165364    -0.32400
H296        H  0.47146965  0.34462043  0.88362517     0.14500
H297        H  0.49981716  0.40147962  0.89861815     0.14300
H298        H  0.39978905  0.38669314  0.91253528     0.14200
H299        H  0.37143208  0.32982385  0.89754161     0.13200
C300        C  0.09792460  0.04793778  0.90598613     0.19500
C301        C  0.10638691  0.07524219  0.89403203    -0.09600
C302        C  0.13839604  0.09121937  0.88536187    -0.10400
C303        C  0.16213094  0.07998321  0.88859119     0.21100
C304        C  0.15378271  0.05287738  0.90065992    -0.12500
C305        C  0.12176559  0.03689566  0.90933075    -0.10800
C306        C  0.19465768  0.09572646  0.87924373     0.02000
C307        C  0.22146442  0.10858118  0.87105156    -0.30800
C308        C  0.06439292  0.03057655  0.91434820     0.03400
C309        C  0.03566396  0.01557592  0.92065308    -0.32400
H310        H  0.08812479  0.08392867  0.89129012     0.14500
H311        H  0.14450403  0.11209440  0.87603684     0.14300
H312        H  0.17187179  0.04390852  0.90324285     0.14200
H313        H  0.11547357  0.01573582  0.91849643     0.13200
C314        C  0.41811318  0.07888372  0.89014953     0.19500
C315        C  0.39851171  0.04823774  0.89995664    -0.09600
C316        C  0.41475267  0.03206707  0.90827421    -0.10400
C317        C  0.45067495  0.04646203  0.90682183     0.21100
C318        C  0.47031262  0.07728562  0.89715668    -0.12500
C319        C  0.45408017  0.09344897  0.88884302    -0.10800
C320        C  0.46729030  0.02913296  0.91476130     0.02000
C321        C  0.48170498  0.01456549  0.92078128    -0.30800
C322        C  0.40127043  0.09474034  0.88094184     0.03400
C323        C  0.38754952  0.10764135  0.87257127    -0.32400
H324        H  0.37067848  0.03666052  0.90100858     0.14500
H325        H  0.39928809  0.00818777  0.91566314     0.14300
H326        H  0.49808624  0.08859536  0.89589241     0.14200
H327        H  0.46949926  0.11705569  0.88124621     0.13200
C328        C  0.21611664  0.28035584  0.75935297     0.19500
C329        C  0.20461415  0.24514690  0.75605031    -0.09600
C330        C  0.22078920  0.22882616  0.76428126    -0.10400
C331        C  0.24851462  0.24767464  0.77584005     0.21100
C332        C  0.26017580  0.28294376  0.77900331    -0.12500
C333        C  0.24402262  0.29923963  0.77078471    -0.10800
C334        C  0.26444002  0.23077845  0.78489003     0.02000
C335        C  0.27785678  0.21751921  0.79319287    -0.30800
C336        C  0.19877795  0.29694366  0.75145934     0.03400
C337        C  0.18408358  0.31123322  0.74548292    -0.32400
H338        H  0.18298234  0.23027251  0.74727161     0.14500
H339        H  0.21149041  0.20151327  0.76177939     0.14300
H340        H  0.28151615  0.29773676  0.78795505     0.14200
H341        H  0.25305578  0.32643768  0.77347395     0.13200
C342        C  0.06707799  0.27801137  0.75904795     0.19500
C343        C  0.05137325  0.24295040  0.76420979    -0.09600
C344        C  0.01907263  0.22692257  0.77257793    -0.10400
C345        C  0.50236428  0.24589972  0.77581920     0.21100
C346        C  0.01791163  0.28084386  0.77048231    -0.12500
C347        C  0.05019555  0.29686269  0.76211836    -0.10800
C348        C  0.46989110  0.22993103  0.78514479     0.02000
C349        C  0.44333157  0.21700896  0.79350522    -0.30800
C350        C  0.10101375  0.29503397  0.75120018     0.03400
C351        C  0.13002101  0.30999327  0.74528387    -0.32400
H352        H  0.06426650  0.22817087  0.76196275     0.14500
H353        H  0.00734313  0.19992149  0.77670378     0.14300
H354        H  0.50528624  0.29579684  0.77297668     0.14200
H355        H  0.06217283  0.32402295  0.75824561     0.13200
C356        C  0.21355915  0.42777557  0.75941637     0.19500
C357        C  0.19355200  0.44151722  0.76584362    -0.09600
C358        C  0.20956691  0.47396789  0.77418067    -0.10400
C359        C  0.24565728  0.99280581  0.77612664     0.21100
C360        C  0.26568835  0.47928549  0.76946444    -0.12500
C361        C  0.24967663  0.44684242  0.76112960    -0.10800
C362        C  0.26199843  0.02528538  0.78555290     0.02000
C363        C  0.27570911  0.05181792  0.79400698    -0.30800
C364        C  0.19699624  0.39364337  0.75163281     0.03400
C365        C  0.18306100  0.36457058  0.74564753    -0.32400
H366        H  0.16559498  0.42695343  0.76462587     0.14500
H367        H  0.19381520  0.48412547  0.77932216     0.14300
H368        H  0.29360301  0.99358081  0.77093643     0.14200
H369        H  0.26538358  0.43642440  0.75624581     0.13200
O370        O  0.27565815  0.67102344  0.80876587    -0.76000
C371        C  0.29208079  0.58271464  0.80457766     0.85000
O372        O  0.28186604  0.63802928  0.86871590    -0.77100
O373        O  0.37371120  0.62065376  0.84507484    -0.78600
O374        O  0.39994172  0.72095032  0.80850448    -0.78400
O375        O  0.32534241  0.72185507  0.80828254    -0.77000
Zn376      Zn  0.28455813  0.63874440  0.82388326     1.55700
O377        O  0.39904232  0.67019402  0.80881237    -0.78400
Cd378      Cd  0.35755203  0.71166464  0.82364793     1.59700
Cd379      Cd  0.33225203  0.66278585  0.85909015     1.59600
O380        O  0.37539941  0.74676744  0.84431162    -0.78400
O381        O  0.33208553  0.66245356  0.83262734    -1.88900
Cd382      Cd  0.35639511  0.63773594  0.82411917     1.59900
O383        O  0.35800496  0.71354159  0.86856502    -0.78400
O384        O  0.32352386  0.59489516  0.80909660    -0.77000
C385        C  0.25278083  0.62365476  0.86080302     0.85500
C386        C  0.29376996  0.70268411  0.80384942     0.85200
O387        O  0.27457192  0.59676146  0.80922988    -0.76000
C388        C  0.41249399  0.70193789  0.80406377     0.86000
O389        O  0.25039269  0.62220729  0.84407909    -0.76100
C390        C  0.37339960  0.74326254  0.86100001     0.86100
C391        C  0.37196819  0.62263358  0.86172867     0.86400
O392        O  0.35713651  0.63742930  0.86906406    -0.78500
C393        C  0.16588494  0.82879733  0.73895184     0.00000
C394        C  0.99993581  0.49697699  0.92729127     0.00000
O395        O  0.43529624  0.98999324  0.52309286    -0.76000
C396        C  0.04071927  0.57838989  0.52761117     0.85000
O397        O  0.47527972  0.52245809  0.46346811    -0.77100
O398        O  0.08407341  0.54031642  0.48747379    -0.78600
O399        O  0.00979955  0.93989556  0.52414097    -0.78400
O400        O  0.43413844  0.93918568  0.52400660    -0.77000
Zn401      Zn  0.47702107  0.52227293  0.50831469     1.55700
O402        O  0.05993063  0.99042355  0.52361665    -0.78400
Cd403      Cd  0.47674892  0.94926003  0.50893673     1.59700
Cd404      Cd  0.50061790  0.99770906  0.47335851     1.59600
O405        O  0.45923505  0.91402017  0.48838966    -0.78400
O406        O  0.50069120  0.99834291  0.49980792    -1.88900
Cd407      Cd  0.04970479  0.52298734  0.50836215     1.59900
O408        O  0.47530189  0.94695502  0.46403251    -0.78400
O409        O  0.05978702  0.56593096  0.52325572    -0.77000
C410        C  0.46086425  0.53720542  0.47123042     0.85500
C411        C  0.42155439  0.95834316  0.52806672     0.85200
O412        O  0.00912179  0.56439945  0.52295355    -0.76000
C413        C  0.04150046  0.95874217  0.52845183     0.86000
O414        O  0.45992628  0.53891798  0.48793373    -0.76100
C415        C  0.46069799  0.91734719  0.47169863     0.86100
C416        C  0.08039321  0.53819171  0.47081899     0.86400
O417        O  0.05078760  0.52302281  0.46341887    -0.78500
C418        C  0.33399515  0.66382516  0.40563372     0.00000
C419        C  0.16845096  0.83213524  0.59373181     0.00000
O420        O  0.23357132  0.89318667  0.14306882    -0.76000
C421        C  0.12764664  0.87371586  0.13898467     0.85000
O422        O  0.19312792  0.88348002  0.20285181    -0.77100
O423        O  0.08503381  0.79004578  0.17857688    -0.78600
O424        O  0.16092314  0.76789917  0.14200584    -0.78400
O425        O  0.23575836  0.84409114  0.14270375    -0.77000
Zn426      Zn  0.19179312  0.88240981  0.15798838     1.55700
O427        O  0.11047833  0.76695926  0.14218818    -0.78400
Cd428      Cd  0.19308588  0.81027511  0.15753512     1.59700
Cd429      Cd  0.16828344  0.83328982  0.19293390     1.59600
O430        O  0.21028799  0.79237071  0.17815264    -0.78400
O431        O  0.16851064  0.83435319  0.16649309    -1.88900
Cd432      Cd  0.11962584  0.80887412  0.15778333     1.59900
O433        O  0.19360339  0.80820034  0.20243129    -0.78400
O434        O  0.10889257  0.84172526  0.14319174    -0.77000
C435        C  0.20745741  0.91296328  0.19508857     0.85500
C436        C  0.24779150  0.87584645  0.13834702     0.85200
O437        O  0.15925348  0.89187756  0.14358208    -0.76000
C438        C  0.12935894  0.75452184  0.13741369     0.86000
O439        O  0.20859347  0.91593211  0.17838721    -0.76100
C440        C  0.20845176  0.79371321  0.19483184     0.86100
C441        C  0.08857470  0.79186001  0.19524247     0.86400
O442        O  0.11809051  0.80732474  0.20271206    -0.78500
C443        C  0.00075460  0.49997465  0.07268655     0.00000
C444        C  0.33520221  0.66716190  0.26039871     0.00000
C445        C  0.40251925  0.95258952  0.09347832     0.19500
C446        C  0.38677240  0.97237738  0.09698678    -0.09600
C447        C  0.35457690  0.95702363  0.10543712    -0.10400
C448        C  0.33801075  0.92181942  0.11041304     0.21100
C449        C  0.35362683  0.90196398  0.10676187    -0.12500
C450        C  0.38581168  0.91731328  0.09831595    -0.10800
C451        C  0.30550945  0.90626336  0.11969686     0.02000
C452        C  0.27881915  0.89273446  0.12795352    -0.30800
C453        C  0.43626623  0.96872764  0.08544477     0.03400
C454        C  0.46509117  0.98260287  0.07931811    -0.32400
H455        H  0.39953439  0.99971413  0.09336004     0.14500
H456        H  0.34279067  0.97264440  0.10824329     0.14300
H457        H  0.34109577  0.87474680  0.11060047     0.14200
H458        H  0.39781381  0.90180971  0.09572706     0.13200
C459        C  0.05106562  0.59948537  0.09240527     0.19500
C460        C  0.08689301  0.61677681  0.09529787    -0.09600
C461        C  0.10343303  0.64925745  0.10360205    -0.10400
C462        C  0.08420358  0.66456166  0.10905091     0.21100
C463        C  0.04842803  0.64740530  0.10601403    -0.12500
C464        C  0.03189326  0.61493351  0.09771315    -0.10800
C465        C  0.10089094  0.69721311  0.11831052     0.02000
C466        C  0.11424983  0.72382425  0.12669686    -0.30800
C467        C  0.03379708  0.56539484  0.08458025     0.03400
C468        C  0.01902003  0.53620008  0.07874271    -0.32400
H469        H  0.10193444  0.60498419  0.09132235     0.14500
H470        H  0.13108239  0.66222230  0.10595463     0.14300
H471        H  0.03328654  0.65892932  0.11024333     0.14200
H472        H  0.00415249  0.60171056  0.09561832     0.13200
C473        C  0.04921358  0.95130763  0.09493944     0.19500
C474        C  0.08050066  0.95575655  0.08839936    -0.09600
C475        C  0.09684130  0.93994806  0.09696208    -0.10400
C476        C  0.08196297  0.91965237  0.11210009     0.21100
C477        C  0.05067467  0.91521084  0.11862816    -0.12500
C478        C  0.03434733  0.93100500  0.11007185    -0.10800
C479        C  0.09881644  0.90357475  0.12104015     0.02000
C480        C  0.11237284  0.89000345  0.12895415    -0.30800
C481        C  0.03255782  0.96792127  0.08633411     0.03400
C482        C  0.01829834  0.98212820  0.07973284    -0.32400
H483        H  0.09227527  0.97148939  0.07673998     0.14500
H484        H  0.12105798  0.94360781  0.09181939     0.14300
H485        H  0.03896872  0.89962872  0.13034012     0.14200
H486        H  0.01021768  0.92747896  0.11527423     0.13200
C487        C  0.28605827  0.71635130  0.23961682     0.19500
C488        C  0.25173005  0.69628867  0.23386223    -0.09600
C489        C  0.23543594  0.71234622  0.22552789    -0.10400
C490        C  0.25340865  0.74853313  0.22291579     0.21100
C491        C  0.28764777  0.76862929  0.22879763    -0.12500
C492        C  0.30394359  0.75256870  0.23713310    -0.10800
C493        C  0.23710293  0.76485830  0.21370990     0.02000
C494        C  0.22379774  0.77822862  0.20541801    -0.30800
C495        C  0.30321024  0.69965996  0.24758473     0.03400
C496        C  0.31767550  0.68526487  0.25370422    -0.32400
H497        H  0.23770936  0.66824480  0.23565990     0.14500
H498        H  0.20900221  0.69654696  0.22096893     0.14300
H499        H  0.30182713  0.79661379  0.22678142     0.14200
H500        H  0.33053552  0.76830268  0.24147483     0.13200
C501        C  0.28605425  0.56842849  0.23976860     0.19500
C502        C  0.30503615  0.55937688  0.22850067    -0.09600
C503        C  0.28879065  0.02706764  0.22006117    -0.10400
C504        C  0.25348398  0.00364323  0.22286184     0.21100
C505        C  0.23452374  0.51257497  0.23423267    -0.12500
C506        C  0.25079252  0.54492508  0.24267416    -0.10800
C507        C  0.23663111  0.97089816  0.21369893     0.02000
C508        C  0.22302825  0.94408588  0.20548284    -0.30800
C509        C  0.30261640  0.60222313  0.24788986     0.03400
C510        C  0.31705383  0.63121052  0.25396991    -0.32400
H511        H  0.33228438  0.57741616  0.22611455     0.14500
H512        H  0.30365577  0.02047524  0.21124759     0.14300
H513        H  0.20718165  0.49469938  0.23644351     0.14200
H514        H  0.23585337  0.55172870  0.25131472     0.13200
C515        C  0.99852543  0.74588243  0.22330285     0.19500
C516        C  0.49070735  0.76491481  0.23524534    -0.09600
C517        C  0.45829222  0.74925717  0.24349156    -0.10400
C518        C  0.43358485  0.71451953  0.23982118     0.21100
C519        C  0.44151475  0.69541851  0.22798927    -0.12500
C520        C  0.97390491  0.71106400  0.21974908    -0.10800
C521        C  0.39980785  0.69866078  0.24780731     0.02000
C522        C  0.37093708  0.68481243  0.25387504    -0.30800
C523        C  0.03128030  0.76232253  0.21423365     0.03400
C524        C  0.05793818  0.77591423  0.20594923    -0.32400
H525        H  0.50949916  0.79189487  0.23803514     0.14500
H526        H  0.45238732  0.76429232  0.25258052     0.14300
H527        H  0.42256254  0.66857460  0.22501681     0.14200
H528        H  0.97961744  0.69614665  0.21048400     0.13200
C529        C  0.33448106  0.66661872  0.31454575     0.19500
C530        C  0.30438007  0.64294506  0.32364621    -0.09600
C531        C  0.30411591  0.64229341  0.34207150    -0.10400
C532        C  0.33395551  0.66531100  0.35147402     0.21100
C533        C  0.36402243  0.68905805  0.34237143    -0.12500
C534        C  0.36428655  0.68970938  0.32394697    -0.10800
C535        C  0.33376975  0.66452622  0.37043205     0.02000
C536        C  0.33378626  0.66404204  0.38632422    -0.30800
C537        C  0.33483778  0.66705874  0.29559035     0.03400
C538        C  0.33507311  0.66720763  0.27970070    -0.32400
H539        H  0.28118913  0.62497524  0.31650682     0.14500
H540        H  0.28072033  0.62383943  0.34897391     0.14300
H541        H  0.38723383  0.70698683  0.34950878     0.14200
H542        H  0.38770087  0.70812067  0.31704344     0.13200
C543        C  0.23564928  0.61504164  0.42638697     0.19500
C544        C  0.22054177  0.63488222  0.43111126    -0.09600
C545        C  0.18807989  0.61890212  0.43930907    -0.10400
C546        C  0.17056789  0.58300264  0.44281759     0.21100
C547        C  0.18560819  0.56313307  0.43801452    -0.12500
C548        C  0.21807459  0.57911613  0.42981622    -0.10800
C549        C  0.13774054  0.56679116  0.45184068     0.02000
C550        C  0.11100056  0.55351739  0.46006814    -0.30800
C551        C  0.26951338  0.63169379  0.41844595     0.03400
C552        C  0.29835375  0.64600026  0.41231342    -0.32400
H553        H  0.23396685  0.66270376  0.42859051     0.14500
H554        H  0.17678928  0.63455770  0.44304416     0.14300
H555        H  0.17239118  0.53539234  0.44074288     0.14200
H556        H  0.22957975  0.56354993  0.42628819     0.13200
C557        C  0.38430590  0.76256667  0.42633596     0.19500
C558        C  0.41294678  0.77197550  0.43726291    -0.09600
C559        C  0.42893287  0.80419014  0.44580351    -0.10400
C560        C  0.41636158  0.82716502  0.44346131     0.21100
C561        C  0.38792423  0.81792056  0.43238980    -0.12500
C562        C  0.37192059  0.78567121  0.42384143    -0.10800
C563        C  0.43212530  0.85973738  0.45279978     0.02000
C564        C  0.44525623  0.88639082  0.46115858    -0.30800
C565        C  0.36699828  0.72874248  0.41822126     0.03400
C566        C  0.35223604  0.69973386  0.41215226    -0.32400
H567        H  0.42265788  0.75425891  0.43933210     0.14500
H568        H  0.45084270  0.81102742  0.45436592     0.14300
H569        H  0.37793444  0.83544913  0.43051716     0.14200
H570        H  0.34971344  0.77860266  0.41546707     0.13200
C571        C  0.41506379  0.58173950  0.44320469     0.19500
C572        C  0.37928383  0.56304129  0.44013212    -0.09600
C573        C  0.36316129  0.57913404  0.43164140    -0.10400
C574        C  0.38274908  0.61399374  0.42618054     0.21100
C575        C  0.41857216  0.63259409  0.42910929    -0.12500
C576        C  0.43469426  0.61650280  0.43759858    -0.10800
C577        C  0.36594026  0.63100475  0.41814425     0.02000
C578        C  0.35163749  0.64563128  0.41208391    -0.30800
C579        C  0.43145753  0.56561079  0.45254341     0.03400
C580        C  0.44502599  0.55247475  0.46082799    -0.32400
H581        H  0.36382826  0.53618418  0.44445753     0.14500
H582        H  0.33542558  0.56455008  0.42951032     0.14300
H583        H  0.43394759  0.65960349  0.42500877     0.14200
H584        H  0.46235257  0.63124369  0.43995249     0.13200
C585        C  0.33087397  0.91477672  0.55561699     0.19500
C586        C  0.30872215  0.92833037  0.55362314    -0.09600
C587        C  0.27657593  0.91235414  0.56213055    -0.10400
C588        C  0.26644827  0.88275629  0.57266714     0.21100
C589        C  0.28867476  0.86932195  0.57474634    -0.12500
C590        C  0.32082415  0.88529922  0.56623854    -0.10800
C591        C  0.23284822  0.86557244  0.58087204     0.02000
C592        C  0.20410076  0.85067097  0.58710015    -0.30800
C593        C  0.36352004  0.93063311  0.54645468     0.03400
C594        C  0.39037538  0.94352427  0.53834804    -0.32400
H595        H  0.31617858  0.95104077  0.54539457     0.14500
H596        H  0.25951868  0.92286373  0.56037257     0.14300
H597        H  0.28102799  0.84635732  0.58280227     0.14200
H598        H  0.33769582  0.87453280  0.56782445     0.13200
C599        C  0.11930711  0.73374835  0.57255159     0.19500
C600        C  0.13879410  0.71977971  0.56568619    -0.09600
C601        C  0.12220999  0.68754673  0.55714077    -0.10400
C602        C  0.08606973  0.66914419  0.55541435     0.21100
C603        C  0.06657223  0.68300756  0.56238718    -0.12500
C604        C  0.08315740  0.71524059  0.57093359    -0.10800
C605        C  0.06914284  0.63648994  0.54613567     0.02000
C606        C  0.05563788  0.60964198  0.53792850    -0.30800
C607        C  0.13643215  0.76750136  0.58075848     0.03400
C608        C  0.15081191  0.79635506  0.58702214    -0.32400
H609        H  0.16676924  0.73392925  0.56679792     0.14500
H610        H  0.13755748  0.67712691  0.55175579     0.14300
H611        H  0.03863234  0.66906278  0.56108616     0.13600
H612        H  0.06785085  0.72586691  0.57613005     0.13200
C613        C  0.08711144  0.91420136  0.55658376     0.19500
C614        C  0.12320338  0.93192435  0.55848225    -0.09600
C615        C  0.13923296  0.91569570  0.56691657    -0.10400
C616        C  0.11924293  0.88168056  0.57349098     0.21100
C617        C  0.08312689  0.86407569  0.57174952    -0.12500
C618        C  0.06709294  0.88030745  0.56331355    -0.10800
C619        C  0.13590144  0.86445963  0.58143245     0.02000
C620        C  0.15033775  0.84990047  0.58738887    -0.30800
C621        C  0.07074902  0.93036505  0.54726468     0.03400
C622        C  0.05724156  0.94351731  0.53895075    -0.32400
H623        H  0.13894423  0.95809081  0.55327765     0.14500
H624        H  0.16719140  0.92948639  0.56812873     0.14300
H625        H  0.06743933  0.83771404  0.57672127     0.14200
H626        H  0.03917821  0.86632038  0.56186632     0.13200
C627        C  0.99985035  0.49763196  0.01849698     0.19500
C628        C  0.01739407  0.48374943  0.00940412    -0.09600
C629        C  0.01728064  0.48335017  0.99097038    -0.10400
C630        C  0.99962271  0.49683249  0.98152889     0.21100
C631        C  0.48192575  0.01054621  0.99062753    -0.12500
C632        C  0.48203942  0.01094518  0.00906183    -0.10800
C633        C  0.99978858  0.49673421  0.96254153     0.02000
C634        C  0.99995091  0.49681126  0.94663157    -0.30800
C635        C  0.00023119  0.49833025  0.03747191     0.03400
C636        C  0.00056348  0.49904466  0.05336967    -0.32400
H637        H  0.03121201  0.47333488  0.01655550     0.14500
H638        H  0.03101460  0.47263406  0.98408898     0.14300
H639        H  0.46814243  0.02100108  0.98347818     0.14200
H640        H  0.46834192  0.02169999  0.01594567     0.13200
C641        C  0.16817366  0.83132083  0.64789051     0.19500
C642        C  0.13693724  0.81953570  0.65698551    -0.09600
C643        C  0.13654308  0.81920820  0.67540704    -0.10400
C644        C  0.16738261  0.83066363  0.68481654     0.21100
C645        C  0.19864541  0.84254525  0.67572761    -0.12500
C646        C  0.19903999  0.84287303  0.65729983    -0.10800
C647        C  0.16689219  0.83005956  0.70376805     0.02000
C648        C  0.16638447  0.82943695  0.71965398    -0.30800
C649        C  0.16850627  0.83153240  0.62893212     0.03400
C650        C  0.16856151  0.83172002  0.61303944    -0.32400
H651        H  0.11292678  0.81057363  0.64984344     0.14500
H652        H  0.11223086  0.80998056  0.68230360     0.14300
H653        H  0.22264509  0.85147255  0.68287513     0.14200
H654        H  0.22334395  0.85206685  0.65040109     0.13200
C655        C  0.41947391  0.83324315  0.88955850     0.19500
C656        C  0.45570077  0.85354144  0.89002337    -0.09600
C657        C  0.47180017  0.88582685  0.89854152    -0.10400
C658        C  0.45176854  0.89799832  0.90664560     0.21100
C659        C  0.41555354  0.87751748  0.90636693    -0.12500
C660        C  0.39945142  0.84522764  0.89784824    -0.10800
C661        C  0.46833236  0.93197863  0.91466879     0.02000
C662        C  0.48242825  0.96102524  0.92073719    -0.30800
C663        C  0.40289417  0.80073327  0.88009662     0.03400
C664        C  0.38923295  0.77414245  0.87165253    -0.32400
H665        H  0.47146478  0.84461377  0.88362531     0.14500
H666        H  0.49981550  0.90147235  0.89861891     0.14300
H667        H  0.39979015  0.88669412  0.91253487     0.14200
H668        H  0.37142993  0.82982555  0.89754058     0.13200
C669        C  0.09792263  0.54793923  0.90598600     0.19500
C670        C  0.10638864  0.57524842  0.89403452    -0.09600
C671        C  0.13839730  0.59122381  0.88536401    -0.10400
C672        C  0.16212791  0.57998105  0.88859039     0.21100
C673        C  0.15377631  0.55287085  0.90065677    -0.12500
C674        C  0.12175964  0.53689090  0.90932794    -0.10800
C675        C  0.19465367  0.59572221  0.87924226     0.02000
C676        C  0.22145967  0.60857623  0.87104956    -0.30800
C677        C  0.06439083  0.53057895  0.91434778     0.03400
C678        C  0.03566173  0.51557869  0.92065238    -0.32400
H679        H  0.08812959  0.58393982  0.89129479     0.14500
H680        H  0.14450815  0.61210249  0.87604087     0.14300
H681        H  0.17186217  0.54389713  0.90323748     0.14200
H682        H  0.11546470  0.51572743  0.91849164     0.13200
C683        C  0.41811294  0.57888767  0.89014764     0.19500
C684        C  0.39851147  0.54824301  0.89995567    -0.09600
C685        C  0.41475211  0.53207216  0.90827333    -0.10400
C686        C  0.45067406  0.54646572  0.90682017     0.21100
C687        C  0.47031177  0.57728795  0.89715399    -0.12500
C688        C  0.45407958  0.59345139  0.88884019    -0.10800
C689        C  0.46728904  0.52913675  0.91476012     0.02000
C690        C  0.48170328  0.51456917  0.92078048    -0.30800
C691        C  0.40127031  0.59474440  0.88094011     0.03400
C692        C  0.38754861  0.60764470  0.87256972    -0.32400
H693        H  0.37067848  0.53666701  0.90100829     0.14500
H694        H  0.39928752  0.50819387  0.91566301     0.14300
H695        H  0.49808508  0.58859657  0.89588914     0.14200
H696        H  0.46949863  0.61705712  0.88124260     0.13200
C697        C  0.21611089  0.78035375  0.75935388     0.19500
C698        C  0.20460600  0.74514398  0.75605211    -0.09600
C699        C  0.22078161  0.72882314  0.76428235    -0.10400
C700        C  0.24850981  0.74767230  0.77583951     0.21100
C701        C  0.26017309  0.78294206  0.77900196    -0.12500
C702        C  0.24401944  0.79923808  0.77078408    -0.10800
C703        C  0.26443600  0.73077639  0.78488882     0.02000
C704        C  0.27785339  0.71751762  0.79319142    -0.30800
C705        C  0.19877266  0.79694238  0.75146071     0.03400
C706        C  0.18407956  0.81123342  0.74548459    -0.32400
H707        H  0.18297224  0.73026928  0.74727462     0.14500
H708        H  0.21148116  0.70150958  0.76178116     0.14300
H709        H  0.28151549  0.79773550  0.78795253     0.14200
H710        H  0.25305437  0.82643667  0.77347261     0.13200
C711        C  0.06707423  0.77801082  0.75904789     0.19500
C712        C  0.05137527  0.74295260  0.76421405    -0.09600
C713        C  0.01907379  0.72692289  0.77258133    -0.10400
C714        C  0.50235874  0.74589530  0.77581738     0.21100
C715        C  0.01790029  0.78083667  0.77047610    -0.12500
C716        C  0.05018502  0.79685731  0.76211299    -0.10800
C717        C  0.46988501  0.72992569  0.78514243     0.02000
C718        C  0.44332535  0.71700413  0.79350272    -0.30800
C719        C  0.10101081  0.79503577  0.75120106     0.03400
C720        C  0.13001847  0.80999604  0.74528528    -0.32400
H721        H  0.06427376  0.72817681  0.76197106     0.14500
H722        H  0.00734887  0.69992415  0.77671064     0.14300
H723        H  0.50526956  0.79578587  0.77296642     0.14200
H724        H  0.06215775  0.82401549  0.75823683     0.13200
C725        C  0.21356122  0.92777851  0.75941717     0.19500
C726        C  0.19355529  0.94152150  0.76584443    -0.09600
C727        C  0.20957139  0.97397246  0.77418121    -0.10400
C728        C  0.24565268  0.49280215  0.77612641     0.21100
C729        C  0.26569180  0.97928805  0.76946445    -0.12500
C730        C  0.24967889  0.94684464  0.76112989    -0.10800
C731        C  0.26199285  0.52528181  0.78555251     0.02000
C732        C  0.27570337  0.55181467  0.79400630    -0.30800
C733        C  0.19699686  0.89364565  0.75163423     0.03400
C734        C  0.18306011  0.86457249  0.74564930    -0.32400
H735        H  0.16559809  0.92695834  0.76462703     0.14500
H736        H  0.19382053  0.98413089  0.77932285     0.14300
H737        H  0.29359934  0.49357890  0.77093667     0.14200
H738        H  0.26538492  0.93642568  0.75624606     0.13200
O739        O  0.77566196  0.17102503  0.80876735    -0.76000
C740        C  0.79208622  0.08271745  0.80457871     0.85000
O741        O  0.78187116  0.13803354  0.86871792    -0.77100
O742        O  0.87371445  0.12065344  0.84507632    -0.78600
O743        O  0.89994575  0.22095303  0.80850601    -0.78400
O744        O  0.82534591  0.22185684  0.80828399    -0.77000
Zn745      Zn  0.78456254  0.13874621  0.82388506     1.55700
O746        O  0.89904915  0.17019811  0.80881494    -0.78400
Cd747      Cd  0.85755568  0.21166636  0.82364929     1.59700
Cd748      Cd  0.83225723  0.16278753  0.85909184     1.59600
O749        O  0.87540313  0.24676916  0.84431285    -0.78400
O750        O  0.83209020  0.16245532  0.83262895    -1.88900
Cd751      Cd  0.85640049  0.13773836  0.82412066     1.59900
O752        O  0.85801271  0.21354352  0.86856639    -0.78400
O753        O  0.82352979  0.09489895  0.80909699    -0.77000
C754        C  0.75278583  0.12365901  0.86080508     0.85500
C755        C  0.79377348  0.20268577  0.80385088     0.85200
O756        O  0.77457658  0.09676293  0.80923184    -0.76000
C757        C  0.91249969  0.20194173  0.80406600     0.86000
O758        O  0.75039764  0.12221043  0.84408116    -0.76100
C759        C  0.87340565  0.24326438  0.86100125     0.86100
C760        C  0.87197059  0.12263214  0.86173019     0.86400
O761        O  0.85713948  0.13742842  0.86906564    -0.78500
C762        C  0.66588733  0.32879560  0.73895014     0.00000
C763        C  0.49993785  0.99697362  0.92729200     0.00000
O764        O  0.93529636  0.48999538  0.52309351    -0.76000
C765        C  0.54071970  0.07838707  0.52761214     0.85000
O766        O  0.97528103  0.02245742  0.46346784    -0.77100
O767        O  0.58407499  0.04031450  0.48747468    -0.78600
O768        O  0.50980041  0.43989823  0.52414056    -0.78400
O769        O  0.93413896  0.43918803  0.52400782    -0.77000
Zn770      Zn  0.97702185  0.02227150  0.50831459     1.55700
O771        O  0.55993065  0.49042720  0.52361627    -0.78400
Cd772      Cd  0.97674817  0.44926145  0.50893688     1.59700
Cd773      Cd  0.00061639  0.49770965  0.47335841     1.59600
O774        O  0.95923223  0.41402059  0.48838991    -0.78400
O775        O  0.00069009  0.49834426  0.49980779    -1.88900
Cd776      Cd  0.54970565  0.02298486  0.50836283     1.59900
O777        O  0.97529864  0.44695539  0.46403273    -0.78400
O778        O  0.55978726  0.06592773  0.52325698    -0.77000
C779        C  0.96086556  0.03720477  0.47123016     0.85500
C780        C  0.92155507  0.45834570  0.52806791     0.85200
O781        O  0.50912259  0.06439749  0.52295392    -0.76000
C782        C  0.54150124  0.45874577  0.52845147     0.86000
O783        O  0.95992769  0.03891719  0.48793349    -0.76100
C784        C  0.96069439  0.41734755  0.47169884     0.86100
C785        C  0.58039485  0.03819078  0.47081985     0.86400
O786        O  0.55078936  0.02302284  0.46341964    -0.78500
C787        C  0.83399496  0.16382587  0.40563409     0.00000
C788        C  0.66844924  0.33213541  0.59373000     0.00000
O789        O  0.73358135  0.39318113  0.14307230    -0.76000
C790        C  0.62765637  0.37371536  0.13897742     0.85000
O791        O  0.69312210  0.38348165  0.20284992    -0.77100
O792        O  0.58503271  0.29005015  0.17857448    -0.78600
O793        O  0.66091959  0.26789334  0.14200781    -0.78400
O794        O  0.73576157  0.34408185  0.14270861    -0.77000
Zn795      Zn  0.69179722  0.38240695  0.15798639     1.55700
O796        O  0.61047739  0.26695893  0.14218837    -0.78400
Cd797      Cd  0.69308333  0.31026847  0.15753749     1.59700
Cd798      Cd  0.66828130  0.33329026  0.19293372     1.59600
O799        O  0.71027947  0.29236226  0.17815686    -0.78400
O800        O  0.66851098  0.33435138  0.16649286    -1.88900
Cd801      Cd  0.61962694  0.30887560  0.15778210     1.59900
O802        O  0.69360127  0.30820263  0.20243403    -0.78400
O803        O  0.60889852  0.34172706  0.14318781    -0.77000
C804        C  0.70745085  0.41296403  0.19508581     0.85500
C805        C  0.74780021  0.37583839  0.13835262     0.85200
O806        O  0.65926371  0.39187500  0.14357436    -0.76000
C807        C  0.62935602  0.25451867  0.13741489     0.86000
O808        O  0.70858996  0.41593112  0.17838434    -0.76100
C809        C  0.70844576  0.29371018  0.19483592     0.86100
C810        C  0.58857218  0.29186255  0.19524011     0.86400
O811        O  0.61808734  0.30732479  0.20271041    -0.78500
C812        C  0.50074619  0.99997352  0.07268703     0.00000
C813        C  0.83520284  0.16716283  0.26039934     0.00000
C814        C  0.90253548  0.45258384  0.09348860     0.19500
C815        C  0.88677301  0.47236208  0.09698383    -0.09600
C816        C  0.85457858  0.45700721  0.10543537    -0.10400
C817        C  0.83802893  0.42181137  0.11042577     0.21100
C818        C  0.85366142  0.40196568  0.10678871    -0.12500
C819        C  0.88584527  0.41731614  0.09834161    -0.10800
C820        C  0.80552584  0.40625394  0.11970819     0.02000
C821        C  0.77883257  0.39272498  0.12796247    -0.30800
C822        C  0.93627970  0.46872354  0.08545164     0.03400
C823        C  0.96510203  0.48260086  0.07932151    -0.32400
H824        H  0.89952144  0.49969231  0.09334521     0.14500
H825        H  0.84277965  0.47262051  0.10823049     0.14300
H826        H  0.84114325  0.37475512  0.11063853     0.14200
H827        H  0.89785955  0.40182011  0.09576312     0.13200
C828        C  0.55105679  0.09948571  0.09240369     0.19500
C829        C  0.58688515  0.11677929  0.09529328    -0.09600
C830        C  0.60342574  0.14925921  0.10359807    -0.10400
C831        C  0.58419593  0.16456066  0.10905053     0.21100
C832        C  0.54841941  0.14740257  0.10601640    -0.12500
C833        C  0.53188402  0.11493137  0.09771491    -0.10800
C834        C  0.60088437  0.19721088  0.11831112     0.02000
C835        C  0.61424516  0.22382124  0.12669803    -0.30800
C836        C  0.53378787  0.06539498  0.08457892     0.03400
C837        C  0.51901111  0.03619971  0.07874204    -0.32400
H838        H  0.60192696  0.10498862  0.09131514     0.14500
H839        H  0.63107587  0.16222552  0.10594848     0.14300
H840        H  0.53327772  0.15892451  0.11024844     0.14200
H841        H  0.50414253  0.10170675  0.09562241     0.13200
C842        C  0.54922899  0.45129748  0.09491843     0.19500
C843        C  0.58097711  0.45650075  0.08865252    -0.09600
C844        C  0.59731654  0.44069067  0.09721465    -0.10400
C845        C  0.58197573  0.41963862  0.11207822     0.21100
C846        C  0.55022562  0.41444117  0.11833154    -0.12500
C847        C  0.53389936  0.43023718  0.10977572    -0.10800
C848        C  0.59883062  0.40356957  0.12102504     0.02000
C849        C  0.61238630  0.39000223  0.12894323    -0.30800
C850        C  0.53257307  0.46792052  0.08632277     0.03400
C851        C  0.51831122  0.48213042  0.07972759    -0.32400
H852        H  0.59311145  0.47282434  0.07720919     0.14500
H853        H  0.62189260  0.44494040  0.09228726     0.14300
H854        H  0.53815998  0.39827234  0.12983160     0.14200
H855        H  0.50941032  0.42612568  0.11476681     0.13200
C856        C  0.78605440  0.21634882  0.23961903     0.19500
C857        C  0.75172015  0.19628834  0.23387289    -0.09600
C858        C  0.73542509  0.21234613  0.22553978    -0.10400
C859        C  0.75340287  0.24853111  0.22292047     0.21100
C860        C  0.78764823  0.26862518  0.22879383    -0.12500
C861        C  0.80394494  0.25256435  0.23712808    -0.10800
C862        C  0.73709601  0.26485599  0.21371533     0.02000
C863        C  0.72379064  0.27822606  0.20542334    -0.30800
C864        C  0.80320679  0.19965692  0.24758575     0.03400
C865        C  0.81767321  0.18526259  0.25370463    -0.32400
H866        H  0.73769536  0.16824580  0.23567619     0.14500
H867        H  0.70898648  0.19654835  0.22098728     0.14300
H868        H  0.80183156  0.29660802  0.22677188     0.14200
H869        H  0.83054162  0.26829663  0.24146324     0.13200
C870        C  0.78606445  0.06842862  0.23977028     0.19500
C871        C  0.80504228  0.05938611  0.22849424    -0.09600
C872        C  0.78878351  0.52705913  0.22006684    -0.10400
C873        C  0.75347154  0.50364467  0.22285854     0.21100
C874        C  0.73454077  0.01256428  0.23424427    -0.12500
C875        C  0.75080832  0.04491518  0.24268491    -0.10800
C876        C  0.73661880  0.47090009  0.21369522     0.02000
C877        C  0.72301784  0.44408763  0.20547928    -0.30800
C878        C  0.80262419  0.10222385  0.24789083     0.03400
C879        C  0.81705837  0.13121145  0.25397058    -0.32400
H880        H  0.83228622  0.07743317  0.22610117     0.14500
H881        H  0.80365213  0.52045956  0.21125970     0.14300
H882        H  0.70720269  0.99468096  0.23646203     0.14200
H883        H  0.73587228  0.05171164  0.25133188     0.13200
C884        C  0.49852310  0.24589082  0.22330049     0.19500
C885        C  0.99067597  0.26494945  0.23521114    -0.09600
C886        C  0.95826187  0.24929207  0.24345827    -0.10400
C887        C  0.93358451  0.21452850  0.23982069     0.21100
C888        C  0.94154318  0.19540217  0.22802040    -0.12500
C889        C  0.47393248  0.21104733  0.21977925    -0.10800
C890        C  0.89980810  0.19866747  0.24780750     0.02000
C891        C  0.87093779  0.18481678  0.25387584    -0.30800
C892        C  0.53127676  0.26232764  0.21423033     0.03400
C893        C  0.55793478  0.27591769  0.20594610    -0.32400
H894        H  0.00944434  0.29194876  0.23797541     0.14500
H895        H  0.95233432  0.26434676  0.25252238     0.14300
H896        H  0.92261395  0.16853794  0.22507322     0.14200
H897        H  0.47966743  0.19610945  0.21053874     0.13200
C898        C  0.83447651  0.16662048  0.31454632     0.19500
C899        C  0.80438101  0.14293320  0.32364640    -0.09600
C900        C  0.80411635  0.14228087  0.34207170    -0.10400
C901        C  0.83394995  0.16531137  0.35147454     0.21100
C902        C  0.86401081  0.18907266  0.34237231    -0.12500
C903        C  0.86427540  0.18972474  0.32394791    -0.10800
C904        C  0.83376518  0.16452481  0.37043250     0.02000
C905        C  0.83378415  0.16404074  0.38632464    -0.30800
C906        C  0.83483512  0.16705996  0.29559094     0.03400
C907        C  0.83507266  0.16720869  0.27970131    -0.32400
H908        H  0.78119511  0.12495294  0.31650669     0.14500
H909        H  0.78072534  0.12381585  0.34897385     0.14300
H910        H  0.88721745  0.20701155  0.34950995     0.14200
H911        H  0.88768536  0.20814684  0.31704467     0.13200
C912        C  0.73564812  0.11504217  0.42638584     0.19500
C913        C  0.72054180  0.13488284  0.43111204    -0.09600
C914        C  0.68808001  0.11890210  0.43930989    -0.10400
C915        C  0.67056703  0.08300194  0.44281654     0.21100
C916        C  0.68560562  0.06313208  0.43801102    -0.12500
C917        C  0.71807193  0.07911578  0.42981269    -0.10800
C918        C  0.63774092  0.06679023  0.45184066     0.02000
C919        C  0.61100196  0.05351654  0.46006892    -0.30800
C920        C  0.76951300  0.13169520  0.41844584     0.03400
C921        C  0.79835390  0.14600186  0.41231407    -0.32400
H922        H  0.73396802  0.16270499  0.42859305     0.14500
H923        H  0.67679053  0.13455777  0.44304676     0.14300
H924        H  0.67238763  0.03539071  0.44073782     0.14200
H925        H  0.72957617  0.06354951  0.42628307     0.13200
C926        C  0.88430664  0.26256998  0.42633332     0.19500
C927        C  0.91294946  0.27198073  0.43725908    -0.09600
C928        C  0.92893446  0.30419506  0.44579999    -0.10400
C929        C  0.91636010  0.32716773  0.44345932     0.21100
C930        C  0.88792145  0.31792184  0.43238855    -0.12500
C931        C  0.87191891  0.28567281  0.42383983    -0.10800
C932        C  0.93212178  0.35973889  0.45279891     0.02000
C933        C  0.94525189  0.38639132  0.46115857    -0.30800
C934        C  0.86699882  0.22874503  0.41821936     0.03400
C935        C  0.85223629  0.19973545  0.41215148    -0.32400
H936        H  0.92266258  0.25426556  0.43932740     0.14500
H937        H  0.95084549  0.31103354  0.45436172     0.14300
H938        H  0.87792941  0.33544880  0.43051697     0.14200
H939        H  0.84971052  0.27860295  0.41546634     0.13200
C940        C  0.91506359  0.08173969  0.44320590     0.19500
C941        C  0.87928339  0.06304206  0.44013384    -0.09600
C942        C  0.86316079  0.07913526  0.43164352    -0.10400
C943        C  0.88274867  0.11399488  0.42618247     0.21100
C944        C  0.91857189  0.13259479  0.42911096    -0.12500
C945        C  0.93469403  0.11650308  0.43759985    -0.10800
C946        C  0.86594010  0.13100595  0.41814571     0.02000
C947        C  0.85163754  0.14563234  0.41208477    -0.30800
C948        C  0.93145778  0.06561034  0.45254385     0.03400
C949        C  0.94502689  0.05247413  0.46082787    -0.32400
H950        H  0.86382770  0.03618491  0.44445922     0.14500
H951        H  0.83542493  0.06455150  0.42951267     0.14300
H952        H  0.93394753  0.15960409  0.42501028     0.14200
H953        H  0.96235250  0.13124362  0.43995336     0.13200
C954        C  0.83087509  0.41478113  0.55561832     0.19500
C955        C  0.80872268  0.42833378  0.55362313    -0.09600
C956        C  0.77657557  0.41235704  0.56212967    -0.10400
C957        C  0.76644765  0.38275968  0.57266671     0.21100
C958        C  0.78867491  0.36932666  0.57474738    -0.12500
C959        C  0.82082518  0.38530440  0.56624048    -0.10800
C960        C  0.73284673  0.36557497  0.58087062     0.02000
C961        C  0.70409896  0.35067239  0.58709831    -0.30800
C962        C  0.86352153  0.43063710  0.54645642     0.03400
C963        C  0.89037675  0.44352753  0.53834972    -0.32400
H964        H  0.81617925  0.45104363  0.54539406     0.14500
H965        H  0.75951774  0.42286570  0.56037060     0.14300
H966        H  0.78102796  0.34636240  0.58280374     0.14200
H967        H  0.83769728  0.37453885  0.56782743     0.13200
C968        C  0.61930755  0.23374708  0.57255110     0.19500
C969        C  0.63879519  0.21978128  0.56568317    -0.09600
C970        C  0.62221115  0.18754746  0.55713852    -0.10400
C971        C  0.58607028  0.16914120  0.55541544     0.21100
C972        C  0.56657213  0.18300152  0.56239098    -0.12500
C973        C  0.58315727  0.21523539  0.57093658    -0.10800
C974        C  0.56914328  0.13648660  0.54613707     0.02000
C975        C  0.55563821  0.10963875  0.53792981    -0.30800
C976        C  0.63643225  0.26750107  0.58075703     0.03400
C977        C  0.65081120  0.29635524  0.58702021    -0.32400
H978        H  0.66677078  0.23393375  0.56679226     0.14500
H979        H  0.63755909  0.17713000  0.55175145     0.14300
H980        H  0.53863180  0.16905383  0.56109254     0.13600
H981        H  0.56785006  0.22585942  0.57613507     0.13200
C982        C  0.58711253  0.41420602  0.55658392     0.19500
C983        C  0.62320450  0.43192773  0.55848221    -0.09600
C984        C  0.63923307  0.41569782  0.56691629    -0.10400
C985        C  0.61924203  0.38168272  0.57349062     0.21100
C986        C  0.58312599  0.36407937  0.57174954    -0.12500
C987        C  0.56709301  0.38031239  0.56331388    -0.10800
C988        C  0.63589944  0.36446020  0.58143153     0.02000
C989        C  0.65033524  0.34990012  0.58738745    -0.30800
C990        C  0.57075092  0.43037035  0.54726472     0.03400
C991        C  0.55724317  0.44352204  0.53895059    -0.32400
H992        H  0.63894610  0.45809402  0.55327757     0.14500
H993        H  0.66719158  0.42948742  0.56812824     0.14300
H994        H  0.56743759  0.33771776  0.57672127     0.14200
H995        H  0.53917828  0.36632643  0.56186691     0.13200
C996        C  0.49985047  0.99762680  0.01849774     0.19500
C997        C  0.51743337  0.98378735  0.00940456    -0.09600
C998        C  0.51731986  0.98338818  0.99097084    -0.10400
C999        C  0.49962275  0.99682758  0.98152967     0.21100
C1000       C  0.98196515  0.51059464  0.99062640    -0.12500
C1001       C  0.98207879  0.51099371  0.00906069    -0.10800
C1002       C  0.49978915  0.99673016  0.96254230     0.02000
C1003       C  0.49995240  0.99680765  0.94663233    -0.30800
C1004       C  0.50023140  0.99832562  0.03747260     0.03400
C1005       C  0.50056176  0.99904114  0.05337030    -0.32400
H1006       H  0.53128191  0.97340646  0.01655568     0.14500
H1007       H  0.53108437  0.97270576  0.98408918     0.14300
H1008       H  0.96821250  0.52108302  0.98347679     0.14200
H1009       H  0.96841183  0.52178219  0.01594424     0.13200
C1010       C  0.66817354  0.33132014  0.64788872     0.19500
C1011       C  0.63693680  0.31953147  0.65698396    -0.09600
C1012       C  0.63654308  0.31920346  0.67540551    -0.10400
C1013       C  0.66738338  0.33066197  0.68481478     0.21100
C1014       C  0.69864647  0.34254716  0.67572560    -0.12500
C1015       C  0.69904060  0.34287535  0.65729781    -0.10800
C1016       C  0.66689353  0.33005764  0.70376631     0.02000
C1017       C  0.66638636  0.32943504  0.71965226    -0.30800
C1018       C  0.66850565  0.33153207  0.62893031     0.03400
C1019       C  0.66856026  0.33171988  0.61303763    -0.32400
H1020       H  0.61292582  0.31056705  0.64984208     0.14500
H1021       H  0.61223065  0.30997311  0.68230226     0.14300
H1022       H  0.72264670  0.35147688  0.68287292     0.14200
H1023       H  0.72334478  0.35207180  0.65039889     0.13200
C1024       C  0.91947774  0.33324569  0.88955901     0.19500
C1025       C  0.95570441  0.35354644  0.89002336    -0.09600
C1026       C  0.97180198  0.38583217  0.89854113    -0.10400
C1027       C  0.95176868  0.39800152  0.90664534     0.21100
C1028       C  0.91555386  0.37751833  0.90636713    -0.12500
C1029       C  0.89945356  0.34522808  0.89784885    -0.10800
C1030       C  0.96833067  0.43198194  0.91466829     0.02000
C1031       C  0.98242599  0.46102862  0.92073655    -0.30800
C1032       C  0.90289975  0.30073551  0.88009745     0.03400
C1033       C  0.88923925  0.27414443  0.87165360    -0.32400
H1034       H  0.97146969  0.34462038  0.88362515     0.14500
H1035       H  0.99981720  0.40147958  0.89861817     0.14300
H1036       H  0.89978921  0.38669338  0.91253513     0.14200
H1037       H  0.87143220  0.32982407  0.89754157     0.13200
C1038       C  0.59792458  0.04793781  0.90598617     0.19500
C1039       C  0.60638688  0.07524224  0.89403208    -0.09600
C1040       C  0.63839598  0.09121942  0.88536188    -0.10400
C1041       C  0.66213087  0.07998323  0.88859118     0.21100
C1042       C  0.65378267  0.05287738  0.90065989    -0.12500
C1043       C  0.62176557  0.03689568  0.90933074    -0.10800
C1044       C  0.69465763  0.09572650  0.87924371     0.02000
C1045       C  0.72146441  0.10858122  0.87105156    -0.30800
C1046       C  0.56439292  0.03057650  0.91434827     0.03400
C1047       C  0.53566394  0.01557574  0.92065313    -0.32400
H1048       H  0.58812477  0.08392881  0.89129022     0.14500
H1049       H  0.64450394  0.11209441  0.87603688     0.14300
H1050       H  0.67187168  0.04390852  0.90324277     0.14200
H1051       H  0.61547357  0.01573582  0.91849640     0.13200
C1052       C  0.91811320  0.07888394  0.89014947     0.19500
C1053       C  0.89851174  0.04823800  0.89995660    -0.09600
C1054       C  0.91475266  0.03206724  0.90827413    -0.10400
C1055       C  0.95067493  0.04646210  0.90682170     0.21100
C1056       C  0.97031261  0.07728573  0.89715658    -0.12500
C1057       C  0.95408018  0.09344910  0.88884294    -0.10800
C1058       C  0.96729026  0.02913297  0.91476116     0.02000
C1059       C  0.98170494  0.01456551  0.92078118    -0.30800
C1060       C  0.90127045  0.09474059  0.88094183     0.03400
C1061       C  0.88754949  0.10764155  0.87257127    -0.32400
H1062       H  0.87067855  0.03666090  0.90100858     0.14500
H1063       H  0.89928809  0.00818800  0.91566306     0.14300
H1064       H  0.99808629  0.08859548  0.89589231     0.14200
H1065       H  0.96949932  0.11705587  0.88124609     0.13200
C1066       C  0.71611665  0.28035597  0.75935301     0.19500
C1067       C  0.70461428  0.24514707  0.75605026    -0.09600
C1068       C  0.72078930  0.22882632  0.76428123    -0.10400
C1069       C  0.74851459  0.24767473  0.77584009     0.21100
C1070       C  0.76017562  0.28294378  0.77900344    -0.12500
C1071       C  0.74402246  0.29923968  0.77078485    -0.10800
C1072       C  0.76444009  0.23077861  0.78489001     0.02000
C1073       C  0.77785682  0.21751935  0.79319285    -0.30800
C1074       C  0.69877799  0.29694381  0.75145936     0.03400
C1075       C  0.68408359  0.31123332  0.74548291    -0.32400
H1076       H  0.68298268  0.23027282  0.74727147     0.14500
H1077       H  0.71149061  0.20151342  0.76177925     0.14300
H1078       H  0.78151585  0.29773671  0.78795527     0.14200
H1079       H  0.75305549  0.32643764  0.77347418     0.13200
C1080       C  0.56707803  0.27801145  0.75904794     0.19500
C1081       C  0.55137327  0.24295050  0.76420977    -0.09600
C1082       C  0.51907267  0.22692266  0.77257793    -0.10400
C1083       C  0.00236419  0.24589959  0.77581918     0.21100
C1084       C  0.51791169  0.28084398  0.77048233    -0.12500
C1085       C  0.55019560  0.29686279  0.76211836    -0.10800
C1086       C  0.96989098  0.22993092  0.78514475     0.02000
C1087       C  0.94333145  0.21700896  0.79350519    -0.30800
C1088       C  0.60101380  0.29503409  0.75120017     0.03400
C1089       C  0.63002106  0.30999346  0.74528385    -0.32400
H1090       H  0.56426649  0.22817091  0.76196272     0.14500
H1091       H  0.50734318  0.19992166  0.77670376     0.14300
H1092       H  0.00528614  0.29579669  0.77297664     0.14200
H1093       H  0.56217292  0.32402305  0.75824563     0.13200
C1094       C  0.71355909  0.42777563  0.75941638     0.19500
C1095       C  0.69355194  0.44151727  0.76584361    -0.09600
C1096       C  0.70956682  0.47396791  0.77418070    -0.10400
C1097       C  0.74565718  0.99280581  0.77612662     0.21100
C1098       C  0.76568825  0.47928554  0.76946446    -0.12500
C1099       C  0.74967660  0.44684251  0.76112961    -0.10800
C1100       C  0.76199834  0.02528536  0.78555289     0.02000
C1101       C  0.77570908  0.05181790  0.79400697    -0.30800
C1102       C  0.69699628  0.39364344  0.75163283     0.03400
C1103       C  0.68306111  0.36457068  0.74564753    -0.32400
H1104       H  0.66559485  0.42695346  0.76462583     0.14500
H1105       H  0.69381509  0.48412551  0.77932218     0.14300
H1106       H  0.79360291  0.99358081  0.77093644     0.14200
H1107       H  0.76538350  0.43642452  0.75624584     0.13200
O1108       O  0.77565825  0.67102351  0.80876587    -0.76000
C1109       C  0.79208088  0.58271471  0.80457770     0.85000
O1110       O  0.78186593  0.63802932  0.86871596    -0.77100
O1111       O  0.87371110  0.62065383  0.84507486    -0.78600
O1112       O  0.89994176  0.72095032  0.80850455    -0.78400
O1113       O  0.82534248  0.72185518  0.80828254    -0.77000
Zn1114     Zn  0.78455808  0.63874441  0.82388329     1.55700
O1115       O  0.89904237  0.67019405  0.80881240    -0.78400
Cd1116     Cd  0.85755207  0.71166468  0.82364796     1.59700
Cd1117     Cd  0.83225193  0.66278585  0.85909022     1.59600
O1118       O  0.87539951  0.74676753  0.84431165    -0.78400
O1119       O  0.83208547  0.66245360  0.83262739    -1.88900
Cd1120     Cd  0.85639510  0.63773608  0.82411918     1.59900
O1121       O  0.85800501  0.71354163  0.86856504    -0.78400
O1122       O  0.82352397  0.59489527  0.80909660    -0.77000
C1123       C  0.75278074  0.62365475  0.86080305     0.85500
C1124       C  0.79377002  0.70268418  0.80384942     0.85200
O1125       O  0.77457197  0.59676145  0.80922996    -0.76000
C1126       C  0.91249405  0.70193793  0.80406383     0.86000
O1127       O  0.75039265  0.62220727  0.84407912    -0.76100
C1128       C  0.87339970  0.74326259  0.86100004     0.86100
C1129       C  0.87196817  0.62263366  0.86172869     0.86400
O1130       O  0.85713652  0.63742938  0.86906412    -0.78500
C1131       C  0.66588493  0.82879734  0.73895184     0.00000
C1132       C  0.49993578  0.49697699  0.92729128     0.00000
O1133       O  0.93529610  0.98999321  0.52309283    -0.76000
C1134       C  0.54071922  0.57838988  0.52761117     0.85000
O1135       O  0.97527975  0.52245809  0.46346810    -0.77100
O1136       O  0.58407344  0.54031642  0.48747379    -0.78600
O1137       O  0.50979952  0.93989547  0.52414096    -0.78400
O1138       O  0.93413854  0.93918576  0.52400668    -0.77000
Zn1139     Zn  0.97702109  0.52227293  0.50831470     1.55700
O1140       O  0.55993057  0.99042350  0.52361667    -0.78400
Cd1141     Cd  0.97674897  0.94926008  0.50893673     1.59700
Cd1142     Cd  0.00061797  0.99770907  0.47335851     1.59600
O1143       O  0.95923514  0.91402017  0.48838967    -0.78400
O1144       O  0.00069124  0.99834297  0.49980793    -1.88900
Cd1145     Cd  0.54970484  0.52298735  0.50836216     1.59900
O1146       O  0.97530181  0.94695502  0.46403252    -0.78400
O1147       O  0.55978700  0.56593098  0.52325573    -0.77000
C1148       C  0.96086431  0.53720544  0.47123041     0.85500
C1149       C  0.92155436  0.95834316  0.52806674     0.85200
O1150       O  0.50912176  0.56439943  0.52295354    -0.76000
C1151       C  0.54150044  0.95874211  0.52845183     0.86000
O1152       O  0.95992634  0.53891799  0.48793373    -0.76100
C1153       C  0.96069801  0.91734720  0.47169864     0.86100
C1154       C  0.58039323  0.53819172  0.47081899     0.86400
O1155       O  0.55078763  0.52302281  0.46341887    -0.78500
C1156       C  0.83399518  0.66382516  0.40563376     0.00000
C1157       C  0.66845088  0.83213522  0.59373181     0.00000
O1158       O  0.73357152  0.89318669  0.14306887    -0.76000
C1159       C  0.62764685  0.87371613  0.13898482     0.85000
O1160       O  0.69312799  0.88347995  0.20285187    -0.77100
O1161       O  0.58503378  0.79004570  0.17857682    -0.78600
O1162       O  0.66092308  0.76789922  0.14200574    -0.78400
O1163       O  0.73575841  0.84409109  0.14270375    -0.77000
Zn1164     Zn  0.69179334  0.88240982  0.15798846     1.55700
O1165       O  0.61047829  0.76695935  0.14218808    -0.78400
Cd1166     Cd  0.69308578  0.81027510  0.15753509     1.59700
Cd1167     Cd  0.66828347  0.83328983  0.19293389     1.59600
O1168       O  0.71028803  0.79237068  0.17815254    -0.78400
O1169       O  0.66851062  0.83435320  0.16649311    -1.88900
Cd1170     Cd  0.61962587  0.80887414  0.15778332     1.59900
O1171       O  0.69360345  0.80820033  0.20243119    -0.78400
O1172       O  0.60889275  0.84172549  0.14319185    -0.77000
C1173       C  0.70745766  0.91296322  0.19508864     0.85500
C1174       C  0.74779165  0.87584643  0.13834706     0.85200
O1175       O  0.65925371  0.89187778  0.14358222    -0.76000
C1176       C  0.62935890  0.75452194  0.13741357     0.86000
O1177       O  0.70859378  0.91593206  0.17838728    -0.76100
C1178       C  0.70845183  0.79371320  0.19483174     0.86100
C1179       C  0.58857468  0.79185995  0.19524241     0.86400
O1180       O  0.61809049  0.80732477  0.20271200    -0.78500
C1181       C  0.50075451  0.49997465  0.07268653     0.00000
C1182       C  0.83520213  0.66716186  0.26039874     0.00000
C1183       C  0.90251941  0.95258942  0.09347839     0.19500
C1184       C  0.88677147  0.97237667  0.09698582    -0.09600
C1185       C  0.85457599  0.95702288  0.10543620    -0.10400
C1186       C  0.83801095  0.92181930  0.11041317     0.21100
C1187       C  0.85362811  0.90196447  0.10676304    -0.12500
C1188       C  0.88581296  0.91731378  0.09831711    -0.10800
C1189       C  0.80550967  0.90626331  0.11969699     0.02000
C1190       C  0.77881935  0.89273443  0.12795362    -0.30800
C1191       C  0.93626639  0.96872763  0.08544478     0.03400
C1192       C  0.96509129  0.98260286  0.07931807    -0.32400
H1193       H  0.89953256  0.99971289  0.09335827     0.14500
H1194       H  0.84278889  0.97264318  0.10824157     0.14300
H1195       H  0.84109792  0.87474777  0.11060247     0.14200
H1196       H  0.89781593  0.90181072  0.09572904     0.13200
C1197       C  0.55106560  0.59948539  0.09240528     0.19500
C1198       C  0.58689301  0.61677699  0.09529781    -0.09600
C1199       C  0.60343299  0.64925771  0.10360192    -0.10400
C1200       C  0.58420347  0.66456183  0.10905079     0.21100
C1201       C  0.54842789  0.64740528  0.10601401    -0.12500
C1202       C  0.53189313  0.61493341  0.09771320    -0.10800
C1203       C  0.60089084  0.69721330  0.11831035     0.02000
C1204       C  0.61424978  0.72382442  0.12669670    -0.30800
C1205       C  0.53379712  0.56539484  0.08458026     0.03400
C1206       C  0.51902003  0.53620008  0.07874270    -0.32400
H1207       H  0.60193449  0.60498445  0.09132228     0.14500
H1208       H  0.63108238  0.66222270  0.10595443     0.14300
H1209       H  0.53328632  0.65892920  0.11024334     0.14200
H1210       H  0.50415241  0.60171036  0.09561844     0.13200
C1211       C  0.54921349  0.95130814  0.09494006     0.19500
C1212       C  0.58048589  0.95573345  0.08839157    -0.09600
C1213       C  0.59682666  0.93992510  0.09695432    -0.10400
C1214       C  0.58196314  0.91965317  0.11210073     0.21100
C1215       C  0.55068954  0.91523532  0.11863723    -0.12500
C1216       C  0.53436210  0.93102935  0.11008091    -0.10800
C1217       C  0.59881658  0.90357524  0.12104054     0.02000
C1218       C  0.61237300  0.89000379  0.12895440    -0.30800
C1219       C  0.53255774  0.96792154  0.08633449     0.03400
C1220       C  0.51829828  0.98212838  0.07973309    -0.32400
H1221       H  0.59224896  0.97144773  0.07672558     0.14500
H1222       H  0.62103193  0.94356639  0.09180501     0.14300
H1223       H  0.53899508  0.89967160  0.13035568     0.14200
H1224       H  0.51024388  0.92752166  0.11528980     0.13200
C1225       C  0.78605832  0.71635129  0.23961679     0.19500
C1226       C  0.75173006  0.69628861  0.23386224    -0.09600
C1227       C  0.73543594  0.71234612  0.22552790    -0.10400
C1228       C  0.75340863  0.74853302  0.22291573     0.21100
C1229       C  0.78764780  0.76862920  0.22879751    -0.12500
C1230       C  0.80394365  0.75256865  0.23713299    -0.10800
C1231       C  0.73710295  0.76485823  0.21370982     0.02000
C1232       C  0.72379782  0.77822861  0.20541793    -0.30800
C1233       C  0.80321026  0.69965997  0.24758473     0.03400
C1234       C  0.81767543  0.68526481  0.25370424    -0.32400
H1235       H  0.73770941  0.66824479  0.23565997     0.14500
H1236       H  0.70900209  0.69654679  0.22096897     0.14300
H1237       H  0.80182716  0.79661365  0.22678124     0.14200
H1238       H  0.83053562  0.76830266  0.24147468     0.13200
C1239       C  0.78605420  0.56842845  0.23976862     0.19500
C1240       C  0.80503608  0.55937678  0.22850070    -0.09600
C1241       C  0.78879089  0.02706759  0.22006120    -0.10400
C1242       C  0.75348425  0.00364312  0.22286193     0.21100
C1243       C  0.73452368  0.51257497  0.23423268    -0.12500
C1244       C  0.75079245  0.54492503  0.24267418    -0.10800
C1245       C  0.73663142  0.97089805  0.21369903     0.02000
C1246       C  0.72302862  0.94408580  0.20548291    -0.30800
C1247       C  0.80261640  0.60222309  0.24788987     0.03400
C1248       C  0.81705384  0.63121049  0.25396991    -0.32400
H1249       H  0.83228436  0.57741606  0.22611458     0.14500
H1250       H  0.80365598  0.02047520  0.21124761     0.14300
H1251       H  0.70718150  0.49469934  0.23644349     0.14200
H1252       H  0.73585328  0.55172865  0.25131477     0.13200
C1253       C  0.49852544  0.74588237  0.22330280     0.19500
C1254       C  0.99070750  0.76491466  0.23524560    -0.09600
C1255       C  0.95829235  0.74925702  0.24349179    -0.10400
C1256       C  0.93358479  0.71451956  0.23982119     0.21100
C1257       C  0.94151452  0.69541872  0.22798907    -0.12500
C1258       C  0.47390510  0.71106378  0.21974925    -0.10800
C1259       C  0.89980778  0.69866078  0.24780735     0.02000
C1260       C  0.87093701  0.68481246  0.25387508    -0.30800
C1261       C  0.53128032  0.76232244  0.21423363     0.03400
C1262       C  0.55793817  0.77591409  0.20594918    -0.32400
H1263       H  0.00949948  0.79189463  0.23803560     0.14500
H1264       H  0.95238759  0.76429205  0.25258095     0.14300
H1265       H  0.92256220  0.66857496  0.22501646     0.14200
H1266       H  0.47961772  0.69614624  0.21048432     0.13200
C1267       C  0.83448099  0.66661873  0.31454578     0.19500
C1268       C  0.80438014  0.64294470  0.32364624    -0.09600
C1269       C  0.80411589  0.64229308  0.34207153    -0.10400
C1270       C  0.83395534  0.66531097  0.35147406     0.21100
C1271       C  0.86402216  0.68905834  0.34237148    -0.12500
C1272       C  0.86428626  0.68970973  0.32394703    -0.10800
C1273       C  0.83376960  0.66452609  0.37043210     0.02000
C1274       C  0.83378625  0.66404198  0.38632427    -0.30800
C1275       C  0.83483774  0.66705873  0.29559038     0.03400
C1276       C  0.83507303  0.66720761  0.27970073    -0.32400
H1277       H  0.78118936  0.62497455  0.31650683     0.14500
H1278       H  0.78072043  0.62383889  0.34897390     0.14300
H1279       H  0.88723343  0.70698728  0.34950884     0.14200
H1280       H  0.88770055  0.70812139  0.31704348     0.13200
C1281       C  0.73564933  0.61504164  0.42638702     0.19500
C1282       C  0.72054184  0.63488223  0.43111135    -0.09600
C1283       C  0.68807998  0.61890213  0.43930918    -0.10400
C1284       C  0.67056797  0.58300265  0.44281768     0.21100
C1285       C  0.68560826  0.56313307  0.43801458    -0.12500
C1286       C  0.71807468  0.57911615  0.42981631    -0.10800
C1287       C  0.63774057  0.56679114  0.45184071     0.02000
C1288       C  0.61100056  0.55351738  0.46006815    -0.30800
C1289       C  0.76951340  0.63169378  0.41844596     0.03400
C1290       C  0.79835377  0.64600027  0.41231344    -0.32400
H1291       H  0.73396690  0.66270374  0.42859058     0.14500
H1292       H  0.67678933  0.63455769  0.44304427     0.14300
H1293       H  0.67239123  0.53539235  0.44074291     0.14200
H1294       H  0.72957988  0.56354997  0.42628830     0.13200
C1295       C  0.88430592  0.76256669  0.42633599     0.19500
C1296       C  0.91294687  0.77197558  0.43726288    -0.09600
C1297       C  0.92893293  0.80419019  0.44580352    -0.10400
C1298       C  0.91636156  0.82716502  0.44346136     0.21100
C1299       C  0.88792421  0.81792054  0.43238988    -0.12500
C1300       C  0.87192050  0.78567119  0.42384150    -0.10800
C1301       C  0.93212536  0.85973739  0.45279981     0.02000
C1302       C  0.94525630  0.88639084  0.46115858    -0.30800
C1303       C  0.86699833  0.72874252  0.41822127     0.03400
C1304       C  0.85223611  0.69973389  0.41215228    -0.32400
H1305       H  0.92265808  0.75425907  0.43933201     0.14500
H1306       H  0.95084278  0.81102750  0.45436589     0.14300
H1307       H  0.87793438  0.83544917  0.43051722     0.14200
H1308       H  0.84971347  0.77860268  0.41546722     0.13200
C1309       C  0.91506385  0.58173949  0.44320467     0.19500
C1310       C  0.87928389  0.56304125  0.44013203    -0.09600
C1311       C  0.86316138  0.57913404  0.43164131    -0.10400
C1312       C  0.88274915  0.61399376  0.42618051     0.21100
C1313       C  0.91857223  0.63259411  0.42910929    -0.12500
C1314       C  0.93469431  0.61650280  0.43759857    -0.10800
C1315       C  0.86594031  0.63100476  0.41814425     0.02000
C1316       C  0.85163749  0.64563125  0.41208394    -0.30800
C1317       C  0.93145757  0.56561078  0.45254340     0.03400
C1318       C  0.94502605  0.55247476  0.46082799    -0.32400
H1319       H  0.86382832  0.53618416  0.44445742     0.14500
H1320       H  0.83542566  0.56455007  0.42951021     0.14300
H1321       H  0.93394767  0.65960351  0.42500879     0.14200
H1322       H  0.96235266  0.63124371  0.43995249     0.13200
C1323       C  0.83087393  0.91477677  0.55561700     0.19500
C1324       C  0.80872218  0.92833052  0.55362318    -0.09600
C1325       C  0.77657594  0.91235430  0.56213055    -0.10400
C1326       C  0.76644816  0.88275637  0.57266710     0.21100
C1327       C  0.78867463  0.86932201  0.57474631    -0.12500
C1328       C  0.82082403  0.88529924  0.56623853    -0.10800
C1329       C  0.73284808  0.86557247  0.58087196     0.02000
C1330       C  0.70410066  0.85067100  0.58710012    -0.30800
C1331       C  0.86352001  0.93063309  0.54645470     0.03400
C1332       C  0.89037535  0.94352424  0.53834806    -0.32400
H1333       H  0.81617871  0.95104102  0.54539462     0.14500
H1334       H  0.75951868  0.92286397  0.56037258     0.14300
H1335       H  0.78102779  0.84635735  0.58280224     0.14200
H1336       H  0.83769564  0.87453276  0.56782445     0.13200
C1337       C  0.61930706  0.73374840  0.57255150     0.19500
C1338       C  0.63879408  0.71977977  0.56568608    -0.09600
C1339       C  0.62220994  0.68754675  0.55714069    -0.10400
C1340       C  0.58606970  0.66914417  0.55541433     0.21100
C1341       C  0.56657218  0.68300754  0.56238717    -0.12500
C1342       C  0.58315737  0.71524060  0.57093354    -0.10800
C1343       C  0.56914275  0.63648992  0.54613566     0.02000
C1344       C  0.55563778  0.60964196  0.53792850    -0.30800
C1345       C  0.63643216  0.76750136  0.58075845     0.03400
C1346       C  0.65081192  0.79635504  0.58702214    -0.32400
H1347       H  0.66676913  0.73392926  0.56679781     0.14500
H1348       H  0.63755747  0.67712691  0.55175570     0.14300
H1349       H  0.53863239  0.66906279  0.56108614     0.13600
H1350       H  0.56785073  0.72586691  0.57613001     0.13200
C1351       C  0.58711140  0.91420117  0.55658368     0.19500
C1352       C  0.62320334  0.93192421  0.55848220    -0.09600
C1353       C  0.63923288  0.91569561  0.56691658    -0.10400
C1354       C  0.61924287  0.88168049  0.57349099     0.21100
C1355       C  0.58312684  0.86407558  0.57174951    -0.12500
C1356       C  0.56709287  0.88030729  0.56331352    -0.10800
C1357       C  0.63590134  0.86445958  0.58143247     0.02000
C1358       C  0.65033763  0.84990040  0.58738888    -0.30800
C1359       C  0.57074897  0.93036489  0.54726464     0.03400
C1360       C  0.55724157  0.94351724  0.53895074    -0.32400
H1361       H  0.63894418  0.95809068  0.55327762     0.14500
H1362       H  0.66719140  0.92948635  0.56812878     0.14300
H1363       H  0.56743928  0.83771392  0.57672127     0.14200
H1364       H  0.53917819  0.86632027  0.56186636     0.13200
C1365       C  0.49985030  0.49763201  0.01849697     0.19500
C1366       C  0.51739394  0.48374942  0.00940410    -0.09600
C1367       C  0.51728050  0.48335016  0.99097037    -0.10400
C1368       C  0.49962264  0.49683255  0.98152888     0.21100
C1369       C  0.98192589  0.01054669  0.99062746    -0.12500
C1370       C  0.98203958  0.01094566  0.00906175    -0.10800
C1371       C  0.49978849  0.49673422  0.96254153     0.02000
C1372       C  0.49995084  0.49681125  0.94663157    -0.30800
C1373       C  0.50023116  0.49833027  0.03747189     0.03400
C1374       C  0.50056339  0.49904466  0.05336965    -0.32400
H1375       H  0.53121184  0.47333482  0.01655548     0.14500
H1376       H  0.53101442  0.47263400  0.98408898     0.14300
H1377       H  0.96814279  0.02100182  0.98347811     0.14200
H1378       H  0.96834221  0.02170067  0.01594561     0.13200
C1379       C  0.66817371  0.83132096  0.64789051     0.19500
C1380       C  0.63693729  0.81953579  0.65698551    -0.09600
C1381       C  0.63654313  0.81920823  0.67540704    -0.10400
C1382       C  0.66738267  0.83066362  0.68481654     0.21100
C1383       C  0.69864545  0.84254521  0.67572760    -0.12500
C1384       C  0.69904003  0.84287304  0.65729983    -0.10800
C1385       C  0.66689222  0.83005956  0.70376804     0.02000
C1386       C  0.66638442  0.82943695  0.71965397    -0.30800
C1387       C  0.66850628  0.83153245  0.62893212     0.03400
C1388       C  0.66856145  0.83172001  0.61303944    -0.32400
H1389       H  0.61292686  0.81057374  0.64984346     0.14500
H1390       H  0.61223095  0.80998065  0.68230361     0.14300
H1391       H  0.72264513  0.85147241  0.68287512     0.14200
H1392       H  0.72334398  0.85206674  0.65040107     0.13200
C1393       C  0.91947394  0.83324322  0.88955849     0.19500
C1394       C  0.95570079  0.85354154  0.89002336    -0.09600
C1395       C  0.97180018  0.88582693  0.89854151    -0.10400
C1396       C  0.95176857  0.89799841  0.90664556     0.21100
C1397       C  0.91555354  0.87751758  0.90636687    -0.12500
C1398       C  0.89945142  0.84522770  0.89784821    -0.10800
C1399       C  0.96833244  0.93197877  0.91466869     0.02000
C1400       C  0.98242840  0.96102538  0.92073708    -0.30800
C1401       C  0.90289424  0.80073332  0.88009664     0.03400
C1402       C  0.88923304  0.77414247  0.87165257    -0.32400
H1403       H  0.97146482  0.84461389  0.88362531     0.14500
H1404       H  0.99981556  0.90147247  0.89861891     0.14300
H1405       H  0.89979013  0.88669427  0.91253477     0.14200
H1406       H  0.87142993  0.82982557  0.89754056     0.13200
C1407       C  0.59792260  0.54793918  0.90598604     0.19500
C1408       C  0.60638842  0.57524814  0.89403445    -0.09600
C1409       C  0.63839710  0.59122363  0.88536396    -0.10400
C1410       C  0.66212787  0.57998107  0.88859045     0.21100
C1411       C  0.65377638  0.55287101  0.90065689    -0.12500
C1412       C  0.62175974  0.53689105  0.90932808    -0.10800
C1413       C  0.69465358  0.59572220  0.87924228     0.02000
C1414       C  0.72145956  0.60857618  0.87104958    -0.30800
C1415       C  0.56439086  0.53057894  0.91434786     0.03400
C1416       C  0.53566172  0.51557868  0.92065242    -0.32400
H1417       H  0.58812924  0.58393935  0.89129463     0.14500
H1418       H  0.64450784  0.61210215  0.87604079     0.14300
H1419       H  0.67186237  0.54389736  0.90323764     0.14200
H1420       H  0.61546490  0.51572776  0.91849186     0.13200
C1421       C  0.91811293  0.57888770  0.89014765     0.19500
C1422       C  0.89851145  0.54824295  0.89995561    -0.09600
C1423       C  0.91475212  0.53207217  0.90827332    -0.10400
C1424       C  0.95067409  0.54646578  0.90682022     0.21100
C1425       C  0.97031176  0.57728801  0.89715403    -0.12500
C1426       C  0.95407960  0.59345152  0.88884027    -0.10800
C1427       C  0.96728906  0.52913676  0.91476013     0.02000
C1428       C  0.98170330  0.51456916  0.92078049    -0.30800
C1429       C  0.90127027  0.59474441  0.88094011     0.03400
C1430       C  0.88754861  0.60764475  0.87256972    -0.32400
H1431       H  0.87067850  0.53666688  0.90100817     0.14500
H1432       H  0.89928750  0.50819386  0.91566299     0.14300
H1433       H  0.99808515  0.58859660  0.89588913     0.14200
H1434       H  0.96949869  0.61705734  0.88124274     0.13200
C1435       C  0.71611093  0.78035381  0.75935384     0.19500
C1436       C  0.70460596  0.74514400  0.75605211    -0.09600
C1437       C  0.72078154  0.72882313  0.76428237    -0.10400
C1438       C  0.74850983  0.74767231  0.77583948     0.21100
C1439       C  0.76017322  0.78294212  0.77900186    -0.12500
C1440       C  0.74401959  0.79923817  0.77078397    -0.10800
C1441       C  0.76443599  0.73077638  0.78488881     0.02000
C1442       C  0.77785338  0.71751763  0.79319143    -0.30800
C1443       C  0.69877260  0.79694238  0.75146073     0.03400
C1444       C  0.68407950  0.81123340  0.74548458    -0.32400
H1445       H  0.68297214  0.73026932  0.74727469     0.14500
H1446       H  0.71148095  0.70150951  0.76178125     0.14300
H1447       H  0.78151568  0.79773557  0.78795239     0.14200
H1448       H  0.75305458  0.82643678  0.77347247     0.13200
C1449       C  0.56707425  0.77801083  0.75904791     0.19500
C1450       C  0.55137532  0.74295262  0.76421405    -0.09600
C1451       C  0.51907384  0.72692289  0.77258133    -0.10400
C1452       C  0.00235874  0.74589535  0.77581738     0.21100
C1453       C  0.51790026  0.78083662  0.77047609    -0.12500
C1454       C  0.55018502  0.79685730  0.76211300    -0.10800
C1455       C  0.96988503  0.72992579  0.78514246     0.02000
C1456       C  0.94332540  0.71700422  0.79350277    -0.30800
C1457       C  0.60101083  0.79503577  0.75120107     0.03400
C1458       C  0.63001848  0.80999606  0.74528529    -0.32400
H1459       H  0.56427382  0.72817684  0.76197106     0.14500
H1460       H  0.50734894  0.69992415  0.77671064     0.14300
H1461       H  0.00526965  0.79578594  0.77296646     0.14200
H1462       H  0.56215773  0.82401547  0.75823683     0.13200
C1463       C  0.71356123  0.92777851  0.75941715     0.19500
C1464       C  0.69355524  0.94152153  0.76584433    -0.09600
C1465       C  0.70957134  0.97397250  0.77418110    -0.10400
C1466       C  0.74565262  0.49280215  0.77612649     0.21100
C1467       C  0.76569176  0.97928805  0.76946445    -0.12500
C1468       C  0.74967886  0.94684465  0.76112990    -0.10800
C1469       C  0.76199283  0.52528181  0.78555260     0.02000
C1470       C  0.77570346  0.55181476  0.79400632    -0.30800
C1471       C  0.69699689  0.89364564  0.75163423     0.03400
C1472       C  0.68306015  0.86457249  0.74564930    -0.32400
H1473       H  0.66559816  0.92695844  0.76462688     0.14500
H1474       H  0.69382039  0.98413096  0.77932269     0.14300
H1475       H  0.79359939  0.49357901  0.77093669     0.14200
H1476       H  0.76538498  0.93642566  0.75624607     0.13200
loop_ 
_geom_bond_atom_site_label_1 
_geom_bond_atom_site_label_2 
_geom_bond_distance 
_geom_bond_site_symmetry_2 
_ccdc_geom_bond_type 
O1           C17   1.273       .  A
O1           Zn7   2.021       .  S
C2           O18   1.273       .  A
C2           O15   1.273       .  A
C2          C363   1.435       .  S
O3           C16   1.274       .  A
O3          Cd10   2.078       .  S
O4           C22   1.273       .  A
O4          Cd13   2.069       .  S
O5           C19   1.273       .  A
O5           Cd9   2.073       .  S
O6           C17   1.273       .  A
O6           Cd9   2.069       .  S
Zn7          O18   2.023       .  S
Zn7          O20   2.022       .  S
Zn7          O12   1.952       .  S
O8           C19   1.273       .  A
O8          Cd13   2.070       .  S
Cd9          O11   2.072       .  S
Cd9          O12   2.004       .  S
Cd10         O14   2.079       .  S
Cd10         O23   2.080       .  S
Cd10         O12   2.009       .  S
O11          C21   1.274       .  A
O12         Cd13   2.003       .  S
Cd13         O15   2.068       .  S
O14          C21   1.274       .  A
C16          O20   1.273       .  A
C16         C307   1.438       .  S
C17         C335   1.435       .  S
C19         C349   1.435       .  S
C21         C295   1.437       .  S
C22          O23   1.275       .  A
C22         C323   1.437       .  S
C24         C279   1.465       .  S
C24         C337   1.466       .  S
C24         C351   1.466       .  S
C24         C365   1.466       .  S
C25         C265   1.468       .  S
C25         C309   1.468   1_665  S
C25        C1400   1.468       .  S
C25        C1059   1.468   1_565  S
O26          C42   1.273       .  A
O26        Zn401   2.022       .  S
C27          O43   1.274       .  A
C27          O40   1.272       .  A
C27         C237   1.435       .  S
O28          C41   1.273       .  A
O28        Cd404   2.073   1_545  S
O29          C47   1.273       .  A
O29         Cd38   2.067       .  S
O30          C44   1.273       .  A
O30        Cd772   2.072   1_455  S
O31          C42   1.273       .  A
O31         Cd34   2.069       .  S
Zn32         O45   2.019       .  S
Zn32        O395   2.022   1_545  S
Zn32        O781   2.026       .  S
Zn32        O406   1.951   1_545  S
O33          C44   1.273       .  A
O33        Cd407   2.071       .  S
Cd34         O36   2.069       .  S
Cd34        O768   2.072       .  S
Cd34         O37   2.003       .  S
Cd35         O39   2.075       .  S
Cd35        O397   2.073       .  S
Cd35       O1155   2.078       .  S
Cd35         O37   2.008       .  S
O36          C46   1.273       .  A
O37        Zn401   1.951       .  S
O37       Cd1145   2.001       .  S
Cd38         O40   2.067       .  S
Cd38        O402   2.071   1_545  S
Cd38       O1144   2.001   1_545  S
O39          C46   1.274       .  A
C41          O45   1.273       .  A
C41         C211   1.435       .  S
C42         C225   1.435       .  S
O43        Zn770   2.026   1_455  S
C44         C253   1.435       .  S
C46         C195   1.435       .  S
C47          O48   1.274       .  A
C47         C181   1.436       .  S
O48       Cd1142   2.078   1_545  S
C49         C167   1.466       .  S
C49         C183   1.466       .  S
C49         C197   1.466       .  S
C49         C209   1.466       .  S
C50         C223   1.465       .  S
C50         C239   1.466       .  S
C50         C251   1.465       .  S
C50         C281   1.466       .  S
O51          C67   1.273       .  A
O51         Zn57   2.025       .  S
C52          O68   1.273       .  A
C52          O65   1.272       .  A
C52         C111   1.435       .  S
O53          C66   1.273       .  A
O53         Cd60   2.070       .  S
O54          C72   1.273       .  A
O54         Cd63   2.067       .  S
O55          C69   1.273       .  A
O55         Cd59   2.071       .  S
O56          C67   1.272       .  A
O56         Cd59   2.065       .  S
Zn57         O68   2.023       .  S
Zn57         O70   2.018       .  S
Zn57         O62   1.950       .  S
O58          C69   1.273       .  A
O58         Cd63   2.070       .  S
Cd59         O61   2.067       .  S
Cd59         O62   2.001       .  S
Cd60         O64   2.074       .  S
Cd60         O73   2.075       .  S
Cd60         O62   2.008       .  S
O61          C71   1.273       .  A
O62         Cd63   2.001       .  S
Cd63         O65   2.067       .  S
O64          C71   1.274       .  A
C66          O70   1.273       .  A
C66         C139   1.434       .  S
C67          C83   1.435       .  S
C69          C97   1.434       .  S
C71         C125   1.434       .  S
C72          O73   1.274       .  A
C72         C155   1.435       .  S
C74          C99   1.466   1_565  S
C74         C267   1.467       .  S
C74        C1192   1.466   1_455  S
C74         C482   1.466       .  S
C75         C127   1.465       .  S
C75         C141   1.465       .  S
C75         C153   1.466       .  S
C75         C169   1.466       .  S
C76          C84   1.439       .  S
C76          C77   1.401       .  A
C76          C81   1.401       .  A
C77          C78   1.399       .  A
C77          H86   1.084       .  S
C78          C79   1.401       .  A
C78          H87   1.083       .  S
C79          C82   1.439       .  S
C79          C80   1.401       .  A
C80          C81   1.399       .  A
C80          H88   1.084       .  S
C81          H89   1.083       .  S
C82          C83   1.206       .  T
C84          C85   1.206       .  T
C85        C1181   1.466       .  S
C90          C98   1.439       .  S
C90          C91   1.401       .  A
C90          C95   1.401       .  A
C91          C92   1.399       .  A
C91         H100   1.083       .  S
C92          C93   1.401       .  A
C92         H101   1.083       .  S
C93          C96   1.439       .  S
C93          C94   1.401       .  A
C94          C95   1.399       .  A
C94         H102   1.083       .  S
C95         H103   1.084       .  S
C96          C97   1.206       .  T
C98          C99   1.206       .  T
C104        C112   1.439       .  S
C104        C105   1.401       .  A
C104        C109   1.401       .  A
C105        C106   1.400       .  A
C105        H114   1.083       .  S
C106        C107   1.401       .  A
C106        H115   1.083       .  S
C107        C110   1.440       .  S
C107        C108   1.401       .  A
C108        C109   1.398       .  A
C108        H116   1.083       .  S
C109        H117   1.084       .  S
C110        C111   1.206       .  T
C112        C113   1.207       .  T
C113        C443   1.466       .  S
C118        C126   1.438       .  S
C118        C119   1.401       .  A
C118        C123   1.401       .  A
C119        C120   1.399       .  A
C119        H128   1.084       .  S
C120        C121   1.401       .  A
C120        H129   1.083       .  S
C121        C124   1.439       .  S
C121        C122   1.401       .  A
C122        C123   1.399       .  A
C122        H130   1.084       .  S
C123        H131   1.083       .  S
C124        C125   1.205       .  T
C126        C127   1.206       .  T
C132        C140   1.438       .  S
C132        C133   1.401       .  A
C132        C137   1.401       .  A
C133        C503   1.398       .  A
C133        H142   1.084       .  S
C134        C135   1.401       .  A
C134        C502   1.398       .  A
C134        H143   1.084       .  S
C135        C138   1.439       .  S
C135        C505   1.401       .  A
C136        C137   1.399       .  A
C136        C504   1.401       .  A
C136        H144   1.083   1_545  S
C137        H145   1.083       .  S
C138        C139   1.205       .  T
C140        C141   1.206       .  T
C146        C154   1.439   1_655  S
C146        C151   1.401       .  A
C146        C885   1.402       .  A
C147        C148   1.399       .  A
C147        C884   1.402       .  A
C147        H156   1.083       .  S
C148        C149   1.401       .  A
C148        H157   1.084       .  S
C149        C152   1.439       .  S
C149        C150   1.401       .  A
C150        C889   1.398       .  A
C150        H158   1.083       .  S
C151        C888   1.398       .  A
C151        H159   1.084       .  S
C152        C153   1.206       .  T
C154        C155   1.206       .  T
C160        C168   1.439       .  S
C160        C161   1.401       .  A
C160        C165   1.401       .  A
C161        C162   1.399       .  A
C161        H170   1.083       .  S
C162        C163   1.401       .  A
C162        H171   1.083       .  S
C163        C166   1.440       .  S
C163        C164   1.401       .  A
C164        C165   1.399       .  A
C164        H172   1.083       .  S
C165        H173   1.083       .  S
C166        C167   1.207       .  T
C168        C169   1.206       .  T
C174        C182   1.439       .  S
C174        C175   1.401       .  A
C174        C179   1.401       .  A
C175        C176   1.399       .  A
C175        H184   1.083       .  S
C176        C177   1.401       .  A
C176        H185   1.083       .  S
C177        C180   1.440       .  S
C177        C178   1.402       .  A
C178        C179   1.399       .  A
C178        H186   1.083       .  S
C179        H187   1.084       .  S
C180        C181   1.206       .  T
C182        C183   1.207       .  T
C188        C196   1.439       .  S
C188        C189   1.401       .  A
C188        C193   1.401       .  A
C189        C190   1.398       .  A
C189        H198   1.084       .  S
C190        C191   1.401       .  A
C190        H199   1.083       .  S
C191        C194   1.440       .  S
C191        C192   1.402       .  A
C192        C193   1.400       .  A
C192        H200   1.083       .  S
C193        H201   1.083       .  S
C194        C195   1.206       .  T
C196        C197   1.206       .  T
C202        C210   1.440       .  S
C202        C203   1.401       .  A
C202        C207   1.401       .  A
C203        C204   1.399       .  A
C203        H212   1.084       .  S
C204        C205   1.401       .  A
C204        H213   1.083       .  S
C205        C208   1.440       .  S
C205        C206   1.401       .  A
C206        C207   1.399       .  A
C206        H214   1.084       .  S
C207        H215   1.083       .  S
C208        C209   1.207       .  T
C210        C211   1.206       .  T
C216        C224   1.439       .  S
C216        C217   1.401       .  A
C216        C221   1.401       .  A
C217        C218   1.399       .  A
C217        H226   1.084       .  S
C218        C219   1.401       .  A
C218        H227   1.083       .  S
C219        C222   1.439       .  S
C219        C220   1.401       .  A
C220        C221   1.399       .  A
C220        H228   1.084       .  S
C221        H229   1.083       .  S
C222        C223   1.206       .  T
C224        C225   1.206       .  T
C230        C238   1.439       .  S
C230        C231   1.401       .  A
C230        C235   1.401       .  A
C231        C232   1.399       .  A
C231        H240   1.083       .  S
C232        C233   1.402       .  A
C232        H241   1.084       .  S
C233        C236   1.440       .  S
C233        C234   1.401       .  A
C234        C235   1.399       .  A
C234        H242   1.083       .  S
C235        H243   1.084       .  S
C236        C237   1.206       .  T
C238        C239   1.207       .  T
C244        C252   1.439       .  S
C244        C245   1.401       .  A
C244        C249   1.401       .  A
C245        C246   1.399       .  A
C245        H254   1.083       .  S
C246        C247   1.401       .  A
C246        H255   1.084       .  S
C247        C250   1.439       .  S
C247        C248   1.401       .  A
C248        C249   1.399       .  A
C248        H256   1.083       .  S
C249        H257   1.083       .  S
C250        C251   1.206       .  T
C252        C253   1.206       .  T
C258        C266   1.441   1_655  S
C258        C259   1.401   1_655  A
C258       C1370   1.402   1_565  A
C259        C260   1.400   1_554  A
C259        H268   1.083       .  S
C260        C261   1.402   1_455  A
C260        H269   1.083       .  S
C261        C264   1.442       .  S
C261       C1369   1.402   1_565  A
C262        C263   1.400   1_556  A
C262       C1368   1.402       .  A
C262        H270   1.083       .  S
C263       C1365   1.402       .  A
C263        H271   1.083       .  S
C264        C265   1.208       .  T
C266        C267   1.207       .  T
C272        C280   1.439       .  S
C272        C273   1.401       .  A
C272        C277   1.401       .  A
C273        C274   1.399       .  A
C273        H282   1.083       .  S
C274        C275   1.401       .  A
C274        H283   1.084       .  S
C275        C278   1.439       .  S
C275        C276   1.401       .  A
C276        C277   1.399       .  A
C276        H284   1.083       .  S
C277        H285   1.083       .  S
C278        C279   1.206       .  T
C280        C281   1.207       .  T
C286        C294   1.442       .  S
C286        C287   1.402       .  A
C286        C291   1.402       .  A
C287        C288   1.400       .  A
C287        H296   1.083       .  S
C288        C289   1.402       .  A
C288        H297   1.084       .  S
C289        C292   1.441       .  S
C289        C290   1.402       .  A
C290        C291   1.400       .  A
C290        H298   1.083       .  S
C291        H299   1.083       .  S
C292        C293   1.208       .  T
C293       C1132   1.468       .  S
C294        C295   1.207       .  T
C300        C308   1.441       .  S
C300        C301   1.402       .  A
C300        C305   1.401       .  A
C301        C302   1.400       .  A
C301        H310   1.083       .  S
C302        C303   1.402       .  A
C302        H311   1.084       .  S
C303        C306   1.442       .  S
C303        C304   1.402       .  A
C304        C305   1.400       .  A
C304        H312   1.083       .  S
C305        H313   1.084       .  S
C306        C307   1.208       .  T
C308        C309   1.208       .  T
C314        C322   1.442       .  S
C314        C315   1.402       .  A
C314        C319   1.402       .  A
C315        C316   1.400       .  A
C315        H324   1.083       .  S
C316        C317   1.402       .  A
C316        H325   1.083       .  S
C317        C320   1.441       .  S
C317        C318   1.401       .  A
C318        C319   1.399       .  A
C318        H326   1.084       .  S
C319        H327   1.083       .  S
C320        C321   1.207       .  T
C321        C763   1.468   1_545  S
C322        C323   1.207       .  T
C328        C336   1.439       .  S
C328        C329   1.402       .  A
C328        C333   1.401       .  A
C329        C330   1.400       .  A
C329        H338   1.084       .  S
C330        C331   1.402       .  A
C330        H339   1.083       .  S
C331        C334   1.440       .  S
C331        C332   1.401       .  A
C332        C333   1.398       .  A
C332        H340   1.084       .  S
C333        H341   1.083       .  S
C334        C335   1.206       .  T
C336        C337   1.206       .  T
C342        C350   1.439       .  S
C342        C343   1.401       .  A
C342        C347   1.401       .  A
C343        C344   1.399       .  A
C343        H352   1.084       .  S
C344       C1083   1.402       .  A
C344        H353   1.083       .  S
C345        C348   1.440       .  S
C345       C1082   1.402       .  A
C345       C1084   1.401       .  A
C346        C347   1.398       .  A
C346       C1083   1.401       .  A
C346       H1092   1.083       .  S
C347        H355   1.083       .  S
C348        C349   1.206       .  T
C350        C351   1.206       .  T
H354       C1084   1.083       .  S
C356        C364   1.439       .  S
C356        C357   1.401       .  A
C356        C361   1.401       .  A
C357        C358   1.399       .  A
C357        H366   1.084       .  S
C358        C728   1.401       .  A
C358        H367   1.083       .  S
C359        C362   1.440   1_565  S
C359        C727   1.401       .  A
C359        C729   1.401       .  A
C360        C361   1.399       .  A
C360        C728   1.401       .  A
C360        H737   1.084       .  S
C361        H369   1.083       .  S
C362        C363   1.206       .  T
C364        C365   1.206       .  T
H368        C729   1.084       .  S
O370        C386   1.273       .  A
O370       Zn376   2.021       .  S
C371        O387   1.273       .  A
C371        O384   1.273       .  A
C371        C732   1.435       .  S
O372        C385   1.274       .  A
O372       Cd379   2.078       .  S
O373        C391   1.273       .  A
O373       Cd382   2.069       .  S
O374        C388   1.273       .  A
O374       Cd378   2.073       .  S
O375        C386   1.273       .  A
O375       Cd378   2.069       .  S
Zn376       O387   2.023       .  S
Zn376       O389   2.022       .  S
Zn376       O381   1.952       .  S
O377        C388   1.273       .  A
O377       Cd382   2.070       .  S
Cd378       O380   2.072       .  S
Cd378       O381   2.004       .  S
Cd379       O383   2.079       .  S
Cd379       O392   2.080       .  S
Cd379       O381   2.009       .  S
O380        C390   1.274       .  A
O381       Cd382   2.003       .  S
Cd382       O384   2.068       .  S
O383        C390   1.274       .  A
C385        O389   1.273       .  A
C385        C676   1.438       .  S
C386        C704   1.435       .  S
C388        C718   1.435       .  S
C390        C664   1.437       .  S
C391        O392   1.275       .  A
C391        C692   1.437       .  S
C393        C648   1.465       .  S
C393        C706   1.466       .  S
C393        C720   1.466       .  S
C393        C734   1.466       .  S
C394        C634   1.468       .  S
C394       C1031   1.468       .  S
C394        C678   1.468   1_655  S
C394       C1428   1.468       .  S
O395        C411   1.273       .  A
C396        O412   1.274       .  A
C396        O409   1.272       .  A
C396        C606   1.435       .  S
O397        C410   1.273       .  A
O398        C416   1.273       .  A
O398       Cd407   2.067       .  S
O399        C413   1.273       .  A
O399      Cd1141   2.072   1_455  S
O400        C411   1.273       .  A
O400       Cd403   2.069       .  S
Zn401      O1150   2.026       .  S
Zn401       O414   2.019       .  S
O402        C413   1.273       .  A
Cd403      O1137   2.072       .  S
Cd403       O405   2.069       .  S
Cd403       O406   2.003       .  S
Cd404       O408   2.075       .  S
Cd404       O786   2.078   1_565  S
Cd404       O406   2.008       .  S
O405        C415   1.273       .  A
O406       Cd776   2.001   1_565  S
Cd407       O409   2.067       .  S
Cd407       O775   2.001       .  S
O408        C415   1.274       .  A
C410        O414   1.273       .  A
C410        C580   1.435       .  S
C411        C594   1.435       .  S
O412      Zn1139   2.026   1_455  S
C413        C622   1.435       .  S
C415        C564   1.435       .  S
C416        O417   1.274       .  A
C416        C550   1.436       .  S
O417       Cd773   2.078       .  S
C418        C536   1.466       .  S
C418        C552   1.466       .  S
C418        C566   1.466       .  S
C418        C578   1.466       .  S
C419        C592   1.465       .  S
C419        C608   1.466       .  S
C419        C620   1.465       .  S
C419        C650   1.466       .  S
O420        C436   1.273       .  A
O420       Zn426   2.025       .  S
C421        O437   1.273       .  A
C421        O434   1.272       .  A
C421        C480   1.435       .  S
O422        C435   1.273       .  A
O422       Cd429   2.070       .  S
O423        C441   1.273       .  A
O423       Cd432   2.068       .  S
O424        C438   1.273       .  A
O424       Cd428   2.071       .  S
O425        C436   1.272       .  A
O425       Cd428   2.065       .  S
Zn426       O437   2.023       .  S
Zn426       O439   2.018       .  S
Zn426       O431   1.950       .  S
O427        C438   1.273       .  A
O427       Cd432   2.070       .  S
Cd428       O430   2.067       .  S
Cd428       O431   2.001       .  S
Cd429       O433   2.074       .  S
Cd429       O442   2.075       .  S
Cd429       O431   2.008       .  S
O430        C440   1.273       .  A
O431       Cd432   2.001       .  S
Cd432       O434   2.067       .  S
O433        C440   1.274       .  A
C435        O439   1.273       .  A
C435        C508   1.434       .  S
C436        C452   1.435       .  S
C438        C466   1.434       .  S
C440        C494   1.434       .  S
C441        O442   1.274       .  A
C441        C524   1.435       .  S
C443        C823   1.466   1_455  S
C443        C468   1.466       .  S
C443        C636   1.467       .  S
C444        C496   1.465       .  S
C444        C510   1.465       .  S
C444        C522   1.466       .  S
C444        C538   1.466       .  S
C445        C453   1.439       .  S
C445        C446   1.401       .  A
C445        C450   1.401       .  A
C446        C447   1.399       .  A
C446        H455   1.084       .  S
C447        C448   1.401       .  A
C447        H456   1.083       .  S
C448        C451   1.439       .  S
C448        C449   1.401       .  A
C449        C450   1.399       .  A
C449        H457   1.084       .  S
C450        H458   1.083       .  S
C451        C452   1.206       .  T
C453        C454   1.206       .  T
C454        C812   1.466       .  S
C459        C467   1.439       .  S
C459        C460   1.401       .  A
C459        C464   1.401       .  A
C460        C461   1.399       .  A
C460        H469   1.083       .  S
C461        C462   1.401       .  A
C461        H470   1.083       .  S
C462        C465   1.439       .  S
C462        C463   1.401       .  A
C463        C464   1.399       .  A
C463        H471   1.083       .  S
C464        H472   1.084       .  S
C465        C466   1.206       .  T
C467        C468   1.206       .  T
C473        C481   1.439       .  S
C473        C474   1.401       .  A
C473        C478   1.401       .  A
C474        C475   1.400       .  A
C474        H483   1.083       .  S
C475        C476   1.401       .  A
C475        H484   1.083       .  S
C476        C479   1.440       .  S
C476        C477   1.401       .  A
C477        C478   1.398       .  A
C477        H485   1.083       .  S
C478        H486   1.084       .  S
C479        C480   1.206       .  T
C481        C482   1.207       .  T
C487        C495   1.438       .  S
C487        C488   1.401       .  A
C487        C492   1.401       .  A
C488        C489   1.399       .  A
C488        H497   1.084       .  S
C489        C490   1.401       .  A
C489        H498   1.083       .  S
C490        C493   1.439       .  S
C490        C491   1.401       .  A
C491        C492   1.399       .  A
C491        H499   1.084       .  S
C492        H500   1.083       .  S
C493        C494   1.205       .  T
C495        C496   1.206       .  T
C501        C509   1.438       .  S
C501        C502   1.401       .  A
C501        C506   1.401       .  A
C502        H511   1.084       .  S
C503        C504   1.401       .  A
C503        H512   1.084       .  S
C504        C507   1.439   1_545  S
C505        C506   1.399       .  A
C505        H513   1.083       .  S
C506        H514   1.083       .  S
C507        C508   1.205       .  T
C509        C510   1.206       .  T
C515        C523   1.439   1_655  S
C515       C1254   1.402       .  A
C515        C520   1.401       .  A
C516       C1253   1.402       .  A
C516        C517   1.399       .  A
C516        H525   1.083       .  S
C517        C518   1.401       .  A
C517        H526   1.084       .  S
C518        C521   1.439       .  S
C518        C519   1.401       .  A
C519       C1258   1.398       .  A
C519        H527   1.083       .  S
C520       C1257   1.398       .  A
C520        H528   1.084       .  S
C521        C522   1.206       .  T
C523        C524   1.206       .  T
C529        C537   1.439       .  S
C529        C530   1.401       .  A
C529        C534   1.401       .  A
C530        C531   1.399       .  A
C530        H539   1.083       .  S
C531        C532   1.401       .  A
C531        H540   1.083       .  S
C532        C535   1.440       .  S
C532        C533   1.401       .  A
C533        C534   1.399       .  A
C533        H541   1.083       .  S
C534        H542   1.083       .  S
C535        C536   1.207       .  T
C537        C538   1.206       .  T
C543        C551   1.439       .  S
C543        C544   1.401       .  A
C543        C548   1.401       .  A
C544        C545   1.399       .  A
C544        H553   1.083       .  S
C545        C546   1.401       .  A
C545        H554   1.083       .  S
C546        C549   1.440       .  S
C546        C547   1.402       .  A
C547        C548   1.399       .  A
C547        H555   1.083       .  S
C548        H556   1.084       .  S
C549        C550   1.206       .  T
C551        C552   1.207       .  T
C557        C565   1.439       .  S
C557        C558   1.401       .  A
C557        C562   1.401       .  A
C558        C559   1.398       .  A
C558        H567   1.084       .  S
C559        C560   1.401       .  A
C559        H568   1.083       .  S
C560        C563   1.440       .  S
C560        C561   1.402       .  A
C561        C562   1.400       .  A
C561        H569   1.083       .  S
C562        H570   1.083       .  S
C563        C564   1.206       .  T
C565        C566   1.206       .  T
C571        C579   1.440       .  S
C571        C572   1.401       .  A
C571        C576   1.401       .  A
C572        C573   1.399       .  A
C572        H581   1.084       .  S
C573        C574   1.401       .  A
C573        H582   1.083       .  S
C574        C577   1.440       .  S
C574        C575   1.401       .  A
C575        C576   1.399       .  A
C575        H583   1.084       .  S
C576        H584   1.083       .  S
C577        C578   1.207       .  T
C579        C580   1.206       .  T
C585        C593   1.439       .  S
C585        C586   1.401       .  A
C585        C590   1.401       .  A
C586        C587   1.399       .  A
C586        H595   1.084       .  S
C587        C588   1.401       .  A
C587        H596   1.083       .  S
C588        C591   1.439       .  S
C588        C589   1.401       .  A
C589        C590   1.399       .  A
C589        H597   1.084       .  S
C590        H598   1.083       .  S
C591        C592   1.206       .  T
C593        C594   1.206       .  T
C599        C607   1.439       .  S
C599        C600   1.401       .  A
C599        C604   1.401       .  A
C600        C601   1.399       .  A
C600        H609   1.083       .  S
C601        C602   1.402       .  A
C601        H610   1.084       .  S
C602        C605   1.440       .  S
C602        C603   1.401       .  A
C603        C604   1.399       .  A
C603        H611   1.083       .  S
C604        H612   1.084       .  S
C605        C606   1.206       .  T
C607        C608   1.207       .  T
C613        C621   1.439       .  S
C613        C614   1.401       .  A
C613        C618   1.401       .  A
C614        C615   1.399       .  A
C614        H623   1.083       .  S
C615        C616   1.401       .  A
C615        H624   1.084       .  S
C616        C619   1.439       .  S
C616        C617   1.401       .  A
C617        C618   1.399       .  A
C617        H625   1.083       .  S
C618        H626   1.083       .  S
C619        C620   1.206       .  T
C621        C622   1.206       .  T
C627        C635   1.441   1_655  S
C627        C628   1.401   1_655  A
C627       C1001   1.402       .  A
C628        C629   1.400   1_554  A
C628        H637   1.083       .  S
C629        C630   1.402   1_455  A
C629        H638   1.083       .  S
C630        C633   1.442       .  S
C630       C1000   1.402       .  A
C631        C999   1.402   1_545  A
C631        C632   1.400   1_556  A
C631        H639   1.083       .  S
C632        C996   1.402   1_545  A
C632        H640   1.083       .  S
C633        C634   1.208       .  T
C635        C636   1.207       .  T
C641        C649   1.439       .  S
C641        C642   1.401       .  A
C641        C646   1.401       .  A
C642        C643   1.399       .  A
C642        H651   1.083       .  S
C643        C644   1.401       .  A
C643        H652   1.084       .  S
C644        C647   1.439       .  S
C644        C645   1.401       .  A
C645        C646   1.399       .  A
C645        H653   1.083       .  S
C646        H654   1.083       .  S
C647        C648   1.206       .  T
C649        C650   1.207       .  T
C655        C663   1.442       .  S
C655        C656   1.402       .  A
C655        C660   1.402       .  A
C656        C657   1.400       .  A
C656        H665   1.083       .  S
C657        C658   1.402       .  A
C657        H666   1.084       .  S
C658        C661   1.441       .  S
C658        C659   1.402       .  A
C659        C660   1.400       .  A
C659        H667   1.083       .  S
C660        H668   1.083       .  S
C661        C662   1.208       .  T
C662        C763   1.468       .  S
C663        C664   1.207       .  T
C669        C677   1.441       .  S
C669        C670   1.402       .  A
C669        C674   1.401       .  A
C670        C671   1.400       .  A
C670        H679   1.083       .  S
C671        C672   1.402       .  A
C671        H680   1.084       .  S
C672        C675   1.442       .  S
C672        C673   1.402       .  A
C673        C674   1.400       .  A
C673        H681   1.083       .  S
C674        H682   1.084       .  S
C675        C676   1.208       .  T
C677        C678   1.208       .  T
C683        C691   1.442       .  S
C683        C684   1.402       .  A
C683        C688   1.402       .  A
C684        C685   1.400       .  A
C684        H693   1.083       .  S
C685        C686   1.402       .  A
C685        H694   1.083       .  S
C686        C689   1.441       .  S
C686        C687   1.401       .  A
C687        C688   1.399       .  A
C687        H695   1.084       .  S
C688        H696   1.083       .  S
C689        C690   1.207       .  T
C690       C1132   1.468       .  S
C691        C692   1.207       .  T
C697        C705   1.439       .  S
C697        C698   1.402       .  A
C697        C702   1.401       .  A
C698        C699   1.400       .  A
C698        H707   1.084       .  S
C699        C700   1.402       .  A
C699        H708   1.083       .  S
C700        C703   1.440       .  S
C700        C701   1.401       .  A
C701        C702   1.398       .  A
C701        H709   1.084       .  S
C702        H710   1.083       .  S
C703        C704   1.206       .  T
C705        C706   1.206       .  T
C711        C719   1.439       .  S
C711        C712   1.401       .  A
C711        C716   1.401       .  A
C712        C713   1.399       .  A
C712        H721   1.084       .  S
C713       C1452   1.402       .  A
C713        H722   1.083       .  S
C714        C717   1.440       .  S
C714       C1451   1.402       .  A
C714       C1453   1.401       .  A
C715       C1452   1.401       .  A
C715        C716   1.398       .  A
C715       H1461   1.083       .  S
C716        H724   1.083       .  S
C717        C718   1.206       .  T
C719        C720   1.206       .  T
H723       C1453   1.083       .  S
C725        C733   1.439       .  S
C725        C726   1.401       .  A
C725        C730   1.401       .  A
C726        C727   1.399       .  A
C726        H735   1.084       .  S
C727        H736   1.083       .  S
C728        C731   1.440       .  S
C729        C730   1.399       .  A
C730        H738   1.083       .  S
C731        C732   1.206       .  T
C733        C734   1.206       .  T
O739        C755   1.273       .  A
O739       Zn745   2.021       .  S
C740        O756   1.273       .  A
C740        O753   1.273       .  A
C740       C1101   1.435       .  S
O741        C754   1.274       .  A
O741       Cd748   2.078       .  S
O742        C760   1.273       .  A
O742       Cd751   2.069       .  S
O743        C757   1.273       .  A
O743       Cd747   2.073       .  S
O744        C755   1.273       .  A
O744       Cd747   2.069       .  S
Zn745       O756   2.023       .  S
Zn745       O758   2.022       .  S
Zn745       O750   1.952       .  S
O746        C757   1.273       .  A
O746       Cd751   2.070       .  S
Cd747       O749   2.072       .  S
Cd747       O750   2.004       .  S
Cd748       O752   2.079       .  S
Cd748       O761   2.080       .  S
Cd748       O750   2.009       .  S
O749        C759   1.274       .  A
O750       Cd751   2.003       .  S
Cd751       O753   2.068       .  S
O752        C759   1.274       .  A
C754        O758   1.273       .  A
C754       C1045   1.438       .  S
C755       C1073   1.435       .  S
C757       C1087   1.435       .  S
C759       C1033   1.437       .  S
C760        O761   1.275       .  A
C760       C1061   1.437       .  S
C762       C1017   1.465       .  S
C762       C1075   1.466       .  S
C762       C1089   1.466       .  S
C762       C1103   1.466       .  S
C763       C1003   1.468       .  S
C763       C1047   1.468   1_565  S
O764        C780   1.273       .  A
O764      Zn1139   2.022       .  S
C765        O781   1.274       .  A
C765        O778   1.272       .  A
C765        C975   1.435       .  S
O766        C779   1.273       .  A
O766      Cd1142   2.073   1_645  S
O767        C785   1.273       .  A
O767       Cd776   2.067       .  S
O768        C782   1.273       .  A
O769        C780   1.273       .  A
O769       Cd772   2.069       .  S
Zn770      O1133   2.022   1_545  S
Zn770       O783   2.019       .  S
Zn770      O1144   1.951   1_645  S
O771        C782   1.273       .  A
O771      Cd1145   2.071       .  S
Cd772       O774   2.069       .  S
Cd772       O775   2.003   1_655  S
Cd773      O1135   2.073   1_455  S
Cd773       O777   2.075   1_455  S
Cd773       O775   2.008       .  S
O774        C784   1.273       .  A
O775      Zn1139   1.951   1_455  S
Cd776      O1140   2.071   1_545  S
Cd776       O778   2.067       .  S
O777        C784   1.274       .  A
C779        O783   1.273       .  A
C779        C949   1.435       .  S
C780        C963   1.435       .  S
C782        C991   1.435       .  S
C784        C933   1.435       .  S
C785        O786   1.274       .  A
C785        C919   1.436       .  S
C787        C905   1.466       .  S
C787        C921   1.466       .  S
C787        C935   1.466       .  S
C787        C947   1.466       .  S
C788        C961   1.465       .  S
C788        C977   1.466       .  S
C788        C989   1.465       .  S
C788       C1019   1.466       .  S
O789        C805   1.273       .  A
O789       Zn795   2.025       .  S
C790        O806   1.273       .  A
C790        O803   1.272       .  A
C790        C849   1.435       .  S
O791        C804   1.273       .  A
O791       Cd798   2.070       .  S
O792        C810   1.273       .  A
O792       Cd801   2.067       .  S
O793        C807   1.273       .  A
O793       Cd797   2.071       .  S
O794        C805   1.272       .  A
O794       Cd797   2.065       .  S
Zn795       O806   2.023       .  S
Zn795       O808   2.018       .  S
Zn795       O800   1.950       .  S
O796        C807   1.273       .  A
O796       Cd801   2.070       .  S
Cd797       O799   2.067       .  S
Cd797       O800   2.001       .  S
Cd798       O802   2.074       .  S
Cd798       O811   2.075       .  S
Cd798       O800   2.008       .  S
O799        C809   1.273       .  A
O800       Cd801   2.001       .  S
Cd801       O803   2.067       .  S
O802        C809   1.274       .  A
C804        O808   1.273       .  A
C804        C877   1.434       .  S
C805        C821   1.435       .  S
C807        C835   1.434       .  S
C809        C863   1.434       .  S
C810        O811   1.274       .  A
C810        C893   1.435       .  S
C812        C837   1.466   1_565  S
C812       C1220   1.466       .  S
C812       C1005   1.467       .  S
C813        C865   1.465       .  S
C813        C879   1.465       .  S
C813        C891   1.466       .  S
C813        C907   1.466       .  S
C814        C822   1.439       .  S
C814        C815   1.401       .  A
C814        C819   1.401       .  A
C815        C816   1.399       .  A
C815        H824   1.084       .  S
C816        C817   1.401       .  A
C816        H825   1.083       .  S
C817        C820   1.439       .  S
C817        C818   1.401       .  A
C818        C819   1.399       .  A
C818        H826   1.084       .  S
C819        H827   1.083       .  S
C820        C821   1.206       .  T
C822        C823   1.206       .  T
C828        C836   1.439       .  S
C828        C829   1.401       .  A
C828        C833   1.401       .  A
C829        C830   1.399       .  A
C829        H838   1.083       .  S
C830        C831   1.401       .  A
C830        H839   1.083       .  S
C831        C834   1.439       .  S
C831        C832   1.401       .  A
C832        C833   1.399       .  A
C832        H840   1.083       .  S
C833        H841   1.084       .  S
C834        C835   1.206       .  T
C836        C837   1.206       .  T
C842        C850   1.439       .  S
C842        C843   1.401       .  A
C842        C847   1.401       .  A
C843        C844   1.400       .  A
C843        H852   1.083       .  S
C844        C845   1.401       .  A
C844        H853   1.083       .  S
C845        C848   1.440       .  S
C845        C846   1.401       .  A
C846        C847   1.398       .  A
C846        H854   1.083       .  S
C847        H855   1.084       .  S
C848        C849   1.206       .  T
C850        C851   1.207       .  T
C851       C1181   1.466       .  S
C856        C864   1.438       .  S
C856        C857   1.401       .  A
C856        C861   1.401       .  A
C857        C858   1.399       .  A
C857        H866   1.084       .  S
C858        C859   1.401       .  A
C858        H867   1.083       .  S
C859        C862   1.439       .  S
C859        C860   1.401       .  A
C860        C861   1.399       .  A
C860        H868   1.084       .  S
C861        H869   1.083       .  S
C862        C863   1.205       .  T
C864        C865   1.206       .  T
C870        C878   1.438       .  S
C870        C871   1.401       .  A
C870        C875   1.401       .  A
C871       C1241   1.398       .  A
C871        H880   1.084       .  S
C872       C1240   1.398       .  A
C872        C873   1.401       .  A
C872        H881   1.084       .  S
C873        C876   1.439       .  S
C873       C1243   1.401       .  A
C874       C1242   1.401       .  A
C874        C875   1.399       .  A
C874        H882   1.083   1_545  S
C875        H883   1.083       .  S
C876        C877   1.205       .  T
C878        C879   1.206       .  T
C884        C892   1.439       .  S
C884        C889   1.401       .  A
C885        C886   1.399       .  A
C885        H894   1.083   1_655  S
C886        C887   1.401       .  A
C886        H895   1.084       .  S
C887        C890   1.439       .  S
C887        C888   1.401       .  A
C888        H896   1.083       .  S
C889        H897   1.084       .  S
C890        C891   1.206       .  T
C892        C893   1.206       .  T
C898        C906   1.439       .  S
C898        C899   1.401       .  A
C898        C903   1.401       .  A
C899        C900   1.399       .  A
C899        H908   1.083       .  S
C900        C901   1.401       .  A
C900        H909   1.083       .  S
C901        C904   1.440       .  S
C901        C902   1.401       .  A
C902        C903   1.399       .  A
C902        H910   1.083       .  S
C903        H911   1.083       .  S
C904        C905   1.207       .  T
C906        C907   1.206       .  T
C912        C920   1.439       .  S
C912        C913   1.401       .  A
C912        C917   1.401       .  A
C913        C914   1.399       .  A
C913        H922   1.083       .  S
C914        C915   1.401       .  A
C914        H923   1.083       .  S
C915        C918   1.440       .  S
C915        C916   1.402       .  A
C916        C917   1.399       .  A
C916        H924   1.083       .  S
C917        H925   1.084       .  S
C918        C919   1.206       .  T
C920        C921   1.207       .  T
C926        C934   1.439       .  S
C926        C927   1.401       .  A
C926        C931   1.401       .  A
C927        C928   1.398       .  A
C927        H936   1.084       .  S
C928        C929   1.401       .  A
C928        H937   1.083       .  S
C929        C932   1.440       .  S
C929        C930   1.402       .  A
C930        C931   1.400       .  A
C930        H938   1.083       .  S
C931        H939   1.083       .  S
C932        C933   1.206       .  T
C934        C935   1.206       .  T
C940        C948   1.440       .  S
C940        C941   1.401       .  A
C940        C945   1.401       .  A
C941        C942   1.399       .  A
C941        H950   1.084       .  S
C942        C943   1.401       .  A
C942        H951   1.083       .  S
C943        C946   1.440       .  S
C943        C944   1.401       .  A
C944        C945   1.399       .  A
C944        H952   1.084       .  S
C945        H953   1.083       .  S
C946        C947   1.207       .  T
C948        C949   1.206       .  T
C954        C962   1.439       .  S
C954        C955   1.401       .  A
C954        C959   1.401       .  A
C955        C956   1.399       .  A
C955        H964   1.084       .  S
C956        C957   1.401       .  A
C956        H965   1.083       .  S
C957        C960   1.439       .  S
C957        C958   1.401       .  A
C958        C959   1.399       .  A
C958        H966   1.084       .  S
C959        H967   1.083       .  S
C960        C961   1.206       .  T
C962        C963   1.206       .  T
C968        C976   1.439       .  S
C968        C969   1.401       .  A
C968        C973   1.401       .  A
C969        C970   1.399       .  A
C969        H978   1.083       .  S
C970        C971   1.402       .  A
C970        H979   1.084       .  S
C971        C974   1.440       .  S
C971        C972   1.401       .  A
C972        C973   1.399       .  A
C972        H980   1.083       .  S
C973        H981   1.084       .  S
C974        C975   1.206       .  T
C976        C977   1.207       .  T
C982        C990   1.439       .  S
C982        C983   1.401       .  A
C982        C987   1.401       .  A
C983        C984   1.399       .  A
C983        H992   1.083       .  S
C984        C985   1.401       .  A
C984        H993   1.084       .  S
C985        C988   1.439       .  S
C985        C986   1.401       .  A
C986        C987   1.399       .  A
C986        H994   1.083       .  S
C987        H995   1.083       .  S
C988        C989   1.206       .  T
C990        C991   1.206       .  T
C996       C1004   1.441       .  S
C996        C997   1.401       .  A
C997        C998   1.400   1_554  A
C997       H1006   1.083       .  S
C998        C999   1.402       .  A
C998       H1007   1.083       .  S
C999       C1002   1.442       .  S
C1000      C1001   1.400   1_556  A
C1000      H1008   1.083       .  S
C1001      H1009   1.083       .  S
C1002      C1003   1.208       .  T
C1004      C1005   1.207       .  T
C1010      C1018   1.439       .  S
C1010      C1011   1.401       .  A
C1010      C1015   1.401       .  A
C1011      C1012   1.399       .  A
C1011      H1020   1.083       .  S
C1012      C1013   1.401       .  A
C1012      H1021   1.084       .  S
C1013      C1016   1.439       .  S
C1013      C1014   1.401       .  A
C1014      C1015   1.399       .  A
C1014      H1022   1.083       .  S
C1015      H1023   1.083       .  S
C1016      C1017   1.206       .  T
C1018      C1019   1.207       .  T
C1024      C1032   1.442       .  S
C1024      C1025   1.402       .  A
C1024      C1029   1.402       .  A
C1025      C1026   1.400       .  A
C1025      H1034   1.083       .  S
C1026      C1027   1.402       .  A
C1026      H1035   1.084       .  S
C1027      C1030   1.441       .  S
C1027      C1028   1.402       .  A
C1028      C1029   1.400       .  A
C1028      H1036   1.083       .  S
C1029      H1037   1.083       .  S
C1030      C1031   1.208       .  T
C1032      C1033   1.207       .  T
C1038      C1046   1.441       .  S
C1038      C1039   1.402       .  A
C1038      C1043   1.401       .  A
C1039      C1040   1.400       .  A
C1039      H1048   1.083       .  S
C1040      C1041   1.402       .  A
C1040      H1049   1.084       .  S
C1041      C1044   1.442       .  S
C1041      C1042   1.402       .  A
C1042      C1043   1.400       .  A
C1042      H1050   1.083       .  S
C1043      H1051   1.084       .  S
C1044      C1045   1.208       .  T
C1046      C1047   1.208       .  T
C1052      C1060   1.442       .  S
C1052      C1053   1.402       .  A
C1052      C1057   1.402       .  A
C1053      C1054   1.400       .  A
C1053      H1062   1.083       .  S
C1054      C1055   1.402       .  A
C1054      H1063   1.083       .  S
C1055      C1058   1.441       .  S
C1055      C1056   1.401       .  A
C1056      C1057   1.399       .  A
C1056      H1064   1.084       .  S
C1057      H1065   1.083       .  S
C1058      C1059   1.207       .  T
C1060      C1061   1.207       .  T
C1066      C1074   1.439       .  S
C1066      C1067   1.402       .  A
C1066      C1071   1.401       .  A
C1067      C1068   1.400       .  A
C1067      H1076   1.084       .  S
C1068      C1069   1.402       .  A
C1068      H1077   1.083       .  S
C1069      C1072   1.440       .  S
C1069      C1070   1.401       .  A
C1070      C1071   1.398       .  A
C1070      H1078   1.084       .  S
C1071      H1079   1.083       .  S
C1072      C1073   1.206       .  T
C1074      C1075   1.206       .  T
C1080      C1088   1.439       .  S
C1080      C1081   1.401       .  A
C1080      C1085   1.401       .  A
C1081      C1082   1.399       .  A
C1081      H1090   1.084       .  S
C1082      H1091   1.083       .  S
C1083      C1086   1.440   1_455  S
C1084      C1085   1.398       .  A
C1085      H1093   1.083       .  S
C1086      C1087   1.206       .  T
C1088      C1089   1.206       .  T
C1094      C1102   1.439       .  S
C1094      C1095   1.401       .  A
C1094      C1099   1.401       .  A
C1095      C1096   1.399       .  A
C1095      H1104   1.084       .  S
C1096      C1466   1.401       .  A
C1096      H1105   1.083       .  S
C1097      C1100   1.440   1_565  S
C1097      C1465   1.401       .  A
C1097      C1467   1.401       .  A
C1098      C1466   1.401       .  A
C1098      C1099   1.399       .  A
C1098      H1475   1.084       .  S
C1099      H1107   1.083       .  S
C1100      C1101   1.206       .  T
C1102      C1103   1.206       .  T
H1106      C1467   1.084       .  S
O1108      C1124   1.273       .  A
O1108     Zn1114   2.021       .  S
C1109      O1125   1.273       .  A
C1109      O1122   1.273       .  A
C1109      C1470   1.435       .  S
O1110      C1123   1.274       .  A
O1110     Cd1117   2.078       .  S
O1111      C1129   1.273       .  A
O1111     Cd1120   2.069       .  S
O1112      C1126   1.273       .  A
O1112     Cd1116   2.073       .  S
O1113      C1124   1.273       .  A
O1113     Cd1116   2.069       .  S
Zn1114     O1125   2.023       .  S
Zn1114     O1127   2.022       .  S
Zn1114     O1119   1.952       .  S
O1115      C1126   1.273       .  A
O1115     Cd1120   2.070       .  S
Cd1116     O1118   2.072       .  S
Cd1116     O1119   2.004       .  S
Cd1117     O1121   2.079       .  S
Cd1117     O1130   2.080       .  S
Cd1117     O1119   2.009       .  S
O1118      C1128   1.274       .  A
O1119     Cd1120   2.003       .  S
Cd1120     O1122   2.068       .  S
O1121      C1128   1.274       .  A
C1123      O1127   1.273       .  A
C1123      C1414   1.438       .  S
C1124      C1442   1.435       .  S
C1126      C1456   1.435       .  S
C1128      C1402   1.437       .  S
C1129      O1130   1.275       .  A
C1129      C1430   1.437       .  S
C1131      C1386   1.465       .  S
C1131      C1444   1.466       .  S
C1131      C1458   1.466       .  S
C1131      C1472   1.466       .  S
C1132      C1372   1.468       .  S
C1132      C1416   1.468       .  S
O1133      C1149   1.273       .  A
C1134      O1150   1.274       .  A
C1134      O1147   1.272       .  A
C1134      C1344   1.435       .  S
O1135      C1148   1.273       .  A
O1136      C1154   1.273       .  A
O1136     Cd1145   2.067       .  S
O1137      C1151   1.273       .  A
O1138      C1149   1.273       .  A
O1138     Cd1141   2.069       .  S
Zn1139     O1152   2.019       .  S
O1140      C1151   1.273       .  A
Cd1141     O1143   2.069       .  S
Cd1141     O1144   2.003   1_655  S
Cd1142     O1146   2.075   1_455  S
Cd1142     O1144   2.008       .  S
O1143      C1153   1.273       .  A
Cd1145     O1147   2.067       .  S
O1146      C1153   1.274       .  A
C1148      O1152   1.273       .  A
C1148      C1318   1.435       .  S
C1149      C1332   1.435       .  S
C1151      C1360   1.435       .  S
C1153      C1302   1.435       .  S
C1154      O1155   1.274       .  A
C1154      C1288   1.436       .  S
C1156      C1274   1.466       .  S
C1156      C1290   1.466       .  S
C1156      C1304   1.466       .  S
C1156      C1316   1.466       .  S
C1157      C1330   1.465       .  S
C1157      C1346   1.466       .  S
C1157      C1358   1.465       .  S
C1157      C1388   1.466       .  S
O1158      C1174   1.273       .  A
O1158     Zn1164   2.025       .  S
C1159      O1175   1.273       .  A
C1159      O1172   1.272       .  A
C1159      C1218   1.435       .  S
O1160      C1173   1.273       .  A
O1160     Cd1167   2.070       .  S
O1161      C1179   1.273       .  A
O1161     Cd1170   2.068       .  S
O1162      C1176   1.273       .  A
O1162     Cd1166   2.071       .  S
O1163      C1174   1.272       .  A
O1163     Cd1166   2.065       .  S
Zn1164     O1175   2.023       .  S
Zn1164     O1177   2.018       .  S
Zn1164     O1169   1.950       .  S
O1165      C1176   1.273       .  A
O1165     Cd1170   2.070       .  S
Cd1166     O1168   2.067       .  S
Cd1166     O1169   2.001       .  S
Cd1167     O1171   2.074       .  S
Cd1167     O1180   2.075       .  S
Cd1167     O1169   2.008       .  S
O1168      C1178   1.273       .  A
O1169     Cd1170   2.001       .  S
Cd1170     O1172   2.067       .  S
O1171      C1178   1.274       .  A
C1173      O1177   1.273       .  A
C1173      C1246   1.434       .  S
C1174      C1190   1.435       .  S
C1176      C1204   1.434       .  S
C1178      C1232   1.434       .  S
C1179      O1180   1.274       .  A
C1179      C1262   1.435       .  S
C1181      C1206   1.466       .  S
C1181      C1374   1.467       .  S
C1182      C1234   1.465       .  S
C1182      C1248   1.465       .  S
C1182      C1260   1.466       .  S
C1182      C1276   1.466       .  S
C1183      C1191   1.439       .  S
C1183      C1184   1.401       .  A
C1183      C1188   1.401       .  A
C1184      C1185   1.399       .  A
C1184      H1193   1.084       .  S
C1185      C1186   1.401       .  A
C1185      H1194   1.083       .  S
C1186      C1189   1.439       .  S
C1186      C1187   1.401       .  A
C1187      C1188   1.399       .  A
C1187      H1195   1.084       .  S
C1188      H1196   1.083       .  S
C1189      C1190   1.206       .  T
C1191      C1192   1.206       .  T
C1197      C1205   1.439       .  S
C1197      C1198   1.401       .  A
C1197      C1202   1.401       .  A
C1198      C1199   1.399       .  A
C1198      H1207   1.083       .  S
C1199      C1200   1.401       .  A
C1199      H1208   1.083       .  S
C1200      C1203   1.439       .  S
C1200      C1201   1.401       .  A
C1201      C1202   1.399       .  A
C1201      H1209   1.083       .  S
C1202      H1210   1.084       .  S
C1203      C1204   1.206       .  T
C1205      C1206   1.206       .  T
C1211      C1219   1.439       .  S
C1211      C1212   1.401       .  A
C1211      C1216   1.401       .  A
C1212      C1213   1.400       .  A
C1212      H1221   1.083       .  S
C1213      C1214   1.401       .  A
C1213      H1222   1.083       .  S
C1214      C1217   1.440       .  S
C1214      C1215   1.401       .  A
C1215      C1216   1.398       .  A
C1215      H1223   1.083       .  S
C1216      H1224   1.084       .  S
C1217      C1218   1.206       .  T
C1219      C1220   1.207       .  T
C1225      C1233   1.438       .  S
C1225      C1226   1.401       .  A
C1225      C1230   1.401       .  A
C1226      C1227   1.399       .  A
C1226      H1235   1.084       .  S
C1227      C1228   1.401       .  A
C1227      H1236   1.083       .  S
C1228      C1231   1.439       .  S
C1228      C1229   1.401       .  A
C1229      C1230   1.399       .  A
C1229      H1237   1.084       .  S
C1230      H1238   1.083       .  S
C1231      C1232   1.205       .  T
C1233      C1234   1.206       .  T
C1239      C1247   1.438       .  S
C1239      C1240   1.401       .  A
C1239      C1244   1.401       .  A
C1240      H1249   1.084       .  S
C1241      C1242   1.401       .  A
C1241      H1250   1.084       .  S
C1242      C1245   1.439   1_545  S
C1243      C1244   1.399       .  A
C1243      H1251   1.083       .  S
C1244      H1252   1.083       .  S
C1245      C1246   1.205       .  T
C1247      C1248   1.206       .  T
C1253      C1261   1.439       .  S
C1253      C1258   1.401       .  A
C1254      C1255   1.399       .  A
C1254      H1263   1.083   1_655  S
C1255      C1256   1.401       .  A
C1255      H1264   1.084       .  S
C1256      C1259   1.439       .  S
C1256      C1257   1.401       .  A
C1257      H1265   1.083       .  S
C1258      H1266   1.084       .  S
C1259      C1260   1.206       .  T
C1261      C1262   1.206       .  T
C1267      C1275   1.439       .  S
C1267      C1268   1.401       .  A
C1267      C1272   1.401       .  A
C1268      C1269   1.399       .  A
C1268      H1277   1.083       .  S
C1269      C1270   1.401       .  A
C1269      H1278   1.083       .  S
C1270      C1273   1.440       .  S
C1270      C1271   1.401       .  A
C1271      C1272   1.399       .  A
C1271      H1279   1.083       .  S
C1272      H1280   1.083       .  S
C1273      C1274   1.207       .  T
C1275      C1276   1.206       .  T
C1281      C1289   1.439       .  S
C1281      C1282   1.401       .  A
C1281      C1286   1.401       .  A
C1282      C1283   1.399       .  A
C1282      H1291   1.083       .  S
C1283      C1284   1.401       .  A
C1283      H1292   1.083       .  S
C1284      C1287   1.440       .  S
C1284      C1285   1.402       .  A
C1285      C1286   1.399       .  A
C1285      H1293   1.083       .  S
C1286      H1294   1.084       .  S
C1287      C1288   1.206       .  T
C1289      C1290   1.207       .  T
C1295      C1303   1.439       .  S
C1295      C1296   1.401       .  A
C1295      C1300   1.401       .  A
C1296      C1297   1.398       .  A
C1296      H1305   1.084       .  S
C1297      C1298   1.401       .  A
C1297      H1306   1.083       .  S
C1298      C1301   1.440       .  S
C1298      C1299   1.402       .  A
C1299      C1300   1.400       .  A
C1299      H1307   1.083       .  S
C1300      H1308   1.083       .  S
C1301      C1302   1.206       .  T
C1303      C1304   1.206       .  T
C1309      C1317   1.440       .  S
C1309      C1310   1.401       .  A
C1309      C1314   1.401       .  A
C1310      C1311   1.399       .  A
C1310      H1319   1.084       .  S
C1311      C1312   1.401       .  A
C1311      H1320   1.083       .  S
C1312      C1315   1.440       .  S
C1312      C1313   1.401       .  A
C1313      C1314   1.399       .  A
C1313      H1321   1.084       .  S
C1314      H1322   1.083       .  S
C1315      C1316   1.207       .  T
C1317      C1318   1.206       .  T
C1323      C1331   1.439       .  S
C1323      C1324   1.401       .  A
C1323      C1328   1.401       .  A
C1324      C1325   1.399       .  A
C1324      H1333   1.084       .  S
C1325      C1326   1.401       .  A
C1325      H1334   1.083       .  S
C1326      C1329   1.439       .  S
C1326      C1327   1.401       .  A
C1327      C1328   1.399       .  A
C1327      H1335   1.084       .  S
C1328      H1336   1.083       .  S
C1329      C1330   1.206       .  T
C1331      C1332   1.206       .  T
C1337      C1345   1.439       .  S
C1337      C1338   1.401       .  A
C1337      C1342   1.401       .  A
C1338      C1339   1.399       .  A
C1338      H1347   1.083       .  S
C1339      C1340   1.402       .  A
C1339      H1348   1.084       .  S
C1340      C1343   1.440       .  S
C1340      C1341   1.401       .  A
C1341      C1342   1.399       .  A
C1341      H1349   1.083       .  S
C1342      H1350   1.084       .  S
C1343      C1344   1.206       .  T
C1345      C1346   1.207       .  T
C1351      C1359   1.439       .  S
C1351      C1352   1.401       .  A
C1351      C1356   1.401       .  A
C1352      C1353   1.399       .  A
C1352      H1361   1.083       .  S
C1353      C1354   1.401       .  A
C1353      H1362   1.084       .  S
C1354      C1357   1.439       .  S
C1354      C1355   1.401       .  A
C1355      C1356   1.399       .  A
C1355      H1363   1.083       .  S
C1356      H1364   1.083       .  S
C1357      C1358   1.206       .  T
C1359      C1360   1.206       .  T
C1365      C1373   1.441       .  S
C1365      C1366   1.401       .  A
C1366      C1367   1.400   1_554  A
C1366      H1375   1.083       .  S
C1367      C1368   1.402       .  A
C1367      H1376   1.083       .  S
C1368      C1371   1.442       .  S
C1369      C1370   1.400   1_556  A
C1369      H1377   1.083       .  S
C1370      H1378   1.083       .  S
C1371      C1372   1.208       .  T
C1373      C1374   1.207       .  T
C1379      C1387   1.439       .  S
C1379      C1380   1.401       .  A
C1379      C1384   1.401       .  A
C1380      C1381   1.399       .  A
C1380      H1389   1.083       .  S
C1381      C1382   1.401       .  A
C1381      H1390   1.084       .  S
C1382      C1385   1.439       .  S
C1382      C1383   1.401       .  A
C1383      C1384   1.399       .  A
C1383      H1391   1.083       .  S
C1384      H1392   1.083       .  S
C1385      C1386   1.206       .  T
C1387      C1388   1.207       .  T
C1393      C1401   1.442       .  S
C1393      C1394   1.402       .  A
C1393      C1398   1.402       .  A
C1394      C1395   1.400       .  A
C1394      H1403   1.083       .  S
C1395      C1396   1.402       .  A
C1395      H1404   1.084       .  S
C1396      C1399   1.441       .  S
C1396      C1397   1.402       .  A
C1397      C1398   1.400       .  A
C1397      H1405   1.083       .  S
C1398      H1406   1.083       .  S
C1399      C1400   1.208       .  T
C1401      C1402   1.207       .  T
C1407      C1415   1.441       .  S
C1407      C1408   1.402       .  A
C1407      C1412   1.401       .  A
C1408      C1409   1.400       .  A
C1408      H1417   1.083       .  S
C1409      C1410   1.402       .  A
C1409      H1418   1.084       .  S
C1410      C1413   1.442       .  S
C1410      C1411   1.402       .  A
C1411      C1412   1.400       .  A
C1411      H1419   1.083       .  S
C1412      H1420   1.084       .  S
C1413      C1414   1.208       .  T
C1415      C1416   1.208       .  T
C1421      C1429   1.442       .  S
C1421      C1422   1.402       .  A
C1421      C1426   1.402       .  A
C1422      C1423   1.400       .  A
C1422      H1431   1.083       .  S
C1423      C1424   1.402       .  A
C1423      H1432   1.083       .  S
C1424      C1427   1.441       .  S
C1424      C1425   1.401       .  A
C1425      C1426   1.399       .  A
C1425      H1433   1.084       .  S
C1426      H1434   1.083       .  S
C1427      C1428   1.207       .  T
C1429      C1430   1.207       .  T
C1435      C1443   1.439       .  S
C1435      C1436   1.402       .  A
C1435      C1440   1.401       .  A
C1436      C1437   1.400       .  A
C1436      H1445   1.084       .  S
C1437      C1438   1.402       .  A
C1437      H1446   1.083       .  S
C1438      C1441   1.440       .  S
C1438      C1439   1.401       .  A
C1439      C1440   1.398       .  A
C1439      H1447   1.084       .  S
C1440      H1448   1.083       .  S
C1441      C1442   1.206       .  T
C1443      C1444   1.206       .  T
C1449      C1457   1.439       .  S
C1449      C1450   1.401       .  A
C1449      C1454   1.401       .  A
C1450      C1451   1.399       .  A
C1450      H1459   1.084       .  S
C1451      H1460   1.083       .  S
C1452      C1455   1.440   1_455  S
C1453      C1454   1.398       .  A
C1454      H1462   1.083       .  S
C1455      C1456   1.206       .  T
C1457      C1458   1.206       .  T
C1463      C1471   1.439       .  S
C1463      C1464   1.401       .  A
C1463      C1468   1.401       .  A
C1464      C1465   1.399       .  A
C1464      H1473   1.084       .  S
C1465      H1474   1.083       .  S
C1466      C1469   1.440       .  S
C1467      C1468   1.399       .  A
C1468      H1476   1.083       .  S
C1469      C1470   1.206       .  T
C1471      C1472   1.206       .  T
