geometry optimzed in LAMMPS
_audit_creation_date              2020-11-30 
_audit_creation_method            'lammps2cif' 
_symmetry_space_group_name_H-M    'P1' 
_symmetry_Int_Tables_number       1 
_symmetry_cell_setting            triclinic 
loop_ 
_symmetry_equiv_pos_as_xyz 
  x,y,z 
_cell_length_a                    33.28060069 
_cell_length_b                    33.265959262008266 
_cell_length_c                    47.24876007908577 
_cell_angle_alpha                 90.09380394647344 
_cell_angle_beta                  89.77910134032447 
_cell_angle_gamma                 119.98574296903962 
loop_ 
_atom_site_label 
_atom_site_type_symbol 
_atom_site_fract_x 
_atom_site_fract_y 
_atom_site_fract_z 
_atom_site_charge 
C1          C  0.52229045  0.41481628  0.08493684     0.79700
N2          N  0.51100922  0.42717021  0.06009353    -0.78600
C3          C  0.54101132  0.46797300  0.04725535     0.82200
N4          N  0.58252607  0.49672607  0.05963278    -0.78500
C5          C  0.59423031  0.48476465  0.08445203     0.82300
N6          N  0.56406594  0.44375479  0.09679731    -0.80200
C7          C  0.43415058  0.50424344  0.90633282     0.79700
N8          N  0.46358631  0.54617290  0.89464398    -0.78600
C9          C  0.50457805  0.57588793  0.90709501     0.82200
N10         N  0.51603866  0.56332254  0.93177359    -0.78500
C11         C  0.48689425  0.52166945  0.94392986     0.82300
N12         N  0.44611136  0.49240395  0.93106831    -0.80200
O13         O  0.55654022  0.52089126  0.52908677    -0.74900
O14         O  0.43611189  0.47659667  0.49774244    -0.74900
O15         O  0.47553238  0.43991979  0.53113530    -0.75000
O16         O  0.51761613  0.55778963  0.49548645    -0.75000
O17         O  0.53802198  0.53290062  0.45730501    -0.75000
O18         O  0.49607360  0.41534162  0.49288798    -0.75000
O19         O  0.45644419  0.45195886  0.45944524    -0.74900
O20         O  0.57729078  0.49630742  0.49090106    -0.75000
Ni21       Ni  0.49567555  0.49968978  0.51468958     1.25400
Ni22       Ni  0.51766107  0.47324674  0.47376140     1.25400
C23         C  0.58672613  0.51542058  0.51538529     0.87300
C24         C  0.42622426  0.45715060  0.47339674     0.87200
C25         C  0.47932036  0.40821771  0.51802978     0.87200
C26         C  0.53486573  0.56486747  0.47044896     0.87400
O27         O  0.16545550  0.75675296  0.82706166    -0.74900
O28         O  0.20937249  0.87643519  0.79413703    -0.74900
O29         O  0.24665705  0.83851947  0.82755784    -0.75000
O30         O  0.12815546  0.79490464  0.79329667    -0.75000
O31         O  0.10423322  0.81668455  0.83134773    -0.75000
O32         O  0.22320620  0.86054122  0.86571368    -0.75000
O33         O  0.18571103  0.89845123  0.83217558    -0.74900
O34         O  0.14182415  0.77868963  0.86514641    -0.75000
Ni35       Ni  0.18818307  0.81580937  0.80917799     1.25400
Ni36       Ni  0.16282389  0.83931736  0.84995952     1.25400
C37         C  0.14622024  0.74776816  0.85155892     0.87300
C38         C  0.20575854  0.90760002  0.80793897     0.87200
C39         C  0.25493210  0.85750397  0.85206181     0.87200
C40         C  0.09650957  0.79851034  0.80658284     0.87400
C41         C  0.58598016  0.06684541  0.08726261     0.79700
N42         N  0.55529945  0.07554048  0.10113013    -0.78600
C43         C  0.51378699  0.06428796  0.08956952     0.82200
N44         N  0.50309669  0.04433053  0.06355390    -0.78500
C45         C  0.53294971  0.03499186  0.04929160     0.82300
N46         N  0.57455163  0.04680307  0.06122217    -0.80200
C47         C  0.43913913  0.92417570  0.89811752     0.79700
N48         N  0.45079471  0.94507872  0.92387485    -0.78600
C49         C  0.49192203  0.95598503  0.93608750     0.82200
N50         N  0.52115234  0.94502151  0.92245043    -0.78500
C51         C  0.51004964  0.92382623  0.89675326     0.82300
N52         N  0.46889369  0.91350788  0.88485573    -0.80200
C53         C  0.92867635  0.41153848  0.08425291     0.79700
N54         N  0.91993096  0.44179191  0.09859591    -0.78600
C55         C  0.93244260  0.48422302  0.08784878     0.82200
N56         N  0.95357321  0.49622659  0.06215750    -0.78500
C57         C  0.96220992  0.46644062  0.04733778     0.82300
N58         N  0.94980874  0.42421551  0.05858084    -0.80200
C59         C  0.08477216  0.56516588  0.89946958     0.79700
N60         N  0.09489573  0.53503518  0.88632545    -0.78600
C61         C  0.08399560  0.49380254  0.89831011     0.82200
N62         N  0.06329124  0.48301897  0.92409162    -0.78500
C63         C  0.05324327  0.51275673  0.93781421     0.82300
N64         N  0.06390287  0.55374266  0.92532159    -0.80200
O65         O  0.77491582  0.14605379  0.16446428    -0.74900
O66         O  0.89538103  0.18838648  0.19602707    -0.74900
O67         O  0.85645452  0.22635910  0.16341112    -0.75000
O68         O  0.81300004  0.10763395  0.19734229    -0.75000
O69         O  0.83301180  0.08359229  0.15864609    -0.75000
O70         O  0.87756397  0.20332103  0.12473723    -0.75000
O71         O  0.91568023  0.16415345  0.15747043    -0.74900
O72         O  0.79584018  0.12305216  0.12570786    -0.75000
Ni73       Ni  0.83430081  0.16793829  0.18170587     1.25400
Ni74       Ni  0.85635772  0.14266229  0.14029838     1.25400
C75         C  0.76556068  0.12804728  0.13967493     0.87300
C76         C  0.92551247  0.18329496  0.18190669     0.87200
C77         C  0.87318206  0.23433379  0.13832047     0.87200
C78         C  0.81500088  0.07557301  0.18352416     0.87400
C79         C  0.24760580  0.81288925  0.42308262     0.79700
N80         N  0.23560907  0.82406169  0.39814735    -0.78600
C81         C  0.19463588  0.79445005  0.38551999     0.82200
N82         N  0.16602722  0.75280009  0.39793951    -0.78500
C83         C  0.17792678  0.74090638  0.42276917     0.82300
N84         N  0.21864132  0.77133717  0.43521316    -0.80200
C85         C  0.10043551  0.83638690  0.24124680     0.79700
N86         N  0.13043332  0.87818379  0.22959193    -0.78600
C87         C  0.17082663  0.90811310  0.24262346     0.82200
N88         N  0.18151680  0.89554524  0.26755218    -0.78500
C89         C  0.15235504  0.85372019  0.27948303     0.82300
N90         N  0.11180006  0.82455346  0.26626237    -0.80200
C91         C  0.24719482  0.39790744  0.42129229     0.79700
N92         N  0.23655436  0.37873047  0.39506290    -0.78600
C93         C  0.19685697  0.37037787  0.38189211     0.82200
N94         N  0.16808530  0.38239424  0.39508233    -0.78500
C95         C  0.17832801  0.40199529  0.42119630     0.82300
N96         N  0.21771899  0.40932840  0.43412335    -0.80200
C97         C  0.10682256  0.25039695  0.23259898     0.79700
N98         N  0.13678166  0.23905691  0.22032937    -0.78600
C99         C  0.17786139  0.25050034  0.23273444     0.82200
N100        N  0.18907361  0.27381571  0.25768551    -0.78500
C101        C  0.15969404  0.28559970  0.27029798     0.82300
N102        N  0.11848471  0.27333194  0.25767809    -0.80200
O103        O  0.41222592  0.23024557  0.16462870    -0.74900
O104        O  0.33180594  0.11362665  0.20041118    -0.74900
O105        O  0.40803937  0.14684586  0.16643063    -0.75000
O106        O  0.33599983  0.19724737  0.19821315    -0.75000
O107        O  0.29019669  0.17290536  0.16027653    -0.75000
O108        O  0.36290040  0.12505924  0.12834271    -0.75000
O109        O  0.28721299  0.09053705  0.16204645    -0.74900
O110        O  0.36626328  0.20791550  0.12681075    -0.75000
Ni111      Ni  0.37366510  0.17280468  0.18382465     1.25400
Ni112      Ni  0.32511199  0.14832391  0.14304248     1.25400
C113        C  0.40249126  0.23838007  0.13984807     0.87300
C114        C  0.29618647  0.08267879  0.18710615     0.87200
C115        C  0.39761759  0.12817231  0.14178177     0.87200
C116        C  0.30088342  0.19285237  0.18443764     0.87400
O117        O  0.06529618  0.55528968  0.50020531    -0.74900
O118        O  0.99109831  0.43494772  0.53297668    -0.74900
O119        O  0.06641923  0.47491742  0.49884468    -0.75000
O120        O  0.98983185  0.51544124  0.53463977    -0.75000
O121        O  0.94369045  0.49299004  0.49702893    -0.75000
O122        O  0.02048819  0.45263324  0.46100581    -0.75000
O123        O  0.94528125  0.41268491  0.49518146    -0.74900
O124        O  0.01894959  0.53318956  0.46255830    -0.75000
Ni125      Ni  0.02977474  0.49597531  0.51801841     1.25400
Ni126      Ni  0.98045335  0.47213120  0.47759832     1.25400
C127        C  0.05465996  0.56394672  0.47581510     0.87300
C128        C  0.95590858  0.40381936  0.51949885     0.87200
C129        C  0.05612463  0.45703743  0.47406450     0.87200
C130        C  0.95376187  0.51050082  0.52194691     0.87400
C131        C  0.76025975  0.56813589  0.57248520     0.79700
N132        N  0.77012552  0.58783621  0.59863145    -0.78600
C133        C  0.80924103  0.59588242  0.61243833     0.82200
N134        N  0.83871479  0.58425872  0.59972573    -0.78500
C135        C  0.82932068  0.56447828  0.57366729     0.82300
N136        N  0.78997304  0.55637076  0.56041357    -0.80200
C137        C  0.91562419  0.73337141  0.75613041     0.79700
N138        N  0.90378448  0.70822020  0.73180887    -0.78600
C139        C  0.86259716  0.69537268  0.71901887     0.82200
N140        N  0.83329903  0.70811442  0.73072442    -0.78500
C141        C  0.84493615  0.73383827  0.75475950     0.82300
N142        N  0.88612551  0.74621822  0.76734282    -0.80200
O143        O  0.65929709  0.78080080  0.86375727    -0.74900
O144        O  0.74088265  0.89729099  0.82894581    -0.74900
O145        O  0.66414891  0.86430227  0.86177013    -0.75000
O146        O  0.73587058  0.81392535  0.83071995    -0.75000
O147        O  0.69134871  0.79139084  0.79233827    -0.75000
O148        O  0.62014526  0.84256875  0.82317773    -0.75000
O149        O  0.69671313  0.87507507  0.79037644    -0.74900
O150        O  0.61438981  0.75865835  0.82547516    -0.75000
Ni151      Ni  0.70158199  0.83981544  0.84767030     1.25400
Ni152      Ni  0.65403868  0.81607644  0.80646267     1.25400
C153        C  0.62320071  0.75066188  0.85053068     0.87300
C154        C  0.73226086  0.90546737  0.80390303     0.87200
C155        C  0.63037265  0.86201838  0.84756123     0.87200
C156        C  0.72583785  0.79470815  0.80628561     0.87400
C157        C  0.83538775  0.22224548  0.56827109     0.79700
N158        N  0.79320354  0.19295299  0.55695329    -0.78600
C159        C  0.76337016  0.15251776  0.57015162     0.82200
N160        N  0.77611129  0.14137107  0.59488476    -0.78500
C161        C  0.81816226  0.17044126  0.60644366     0.82300
N162        N  0.84747731  0.21063181  0.59300203    -0.80200
C163        C  0.86216593  0.07883511  0.75016429     0.79700
N164        N  0.90367455  0.10941407  0.76167570    -0.78600
C165        C  0.93340611  0.14918491  0.74786626     0.82200
N166        N  0.92104528  0.15857460  0.72243010    -0.78500
C167        C  0.87950400  0.12825347  0.71072675     0.82300
N168        N  0.85030687  0.08870317  0.72478035    -0.80200
O169        O  0.91650251  0.71639603  0.16320385    -0.74900
O170        O  0.79968467  0.63816568  0.12768926    -0.74900
O171        O  0.83425687  0.71358787  0.16137896    -0.75000
O172        O  0.88195449  0.64099351  0.12939227    -0.75000
O173        O  0.85932379  0.59521535  0.16731032    -0.75000
O174        O  0.81014135  0.66776489  0.19936422    -0.75000
O175        O  0.77660770  0.59189295  0.16548435    -0.74900
O176        O  0.89325410  0.67113986  0.20134434    -0.75000
Ni177      Ni  0.85894226  0.67887575  0.14411102     1.25400
Ni178      Ni  0.83399879  0.62986079  0.18478797     1.25400
C179        C  0.92427649  0.70704539  0.18820244     0.87300
C180        C  0.76905892  0.60179653  0.14059879     0.87200
C181        C  0.81435750  0.70286561  0.18560456     0.87200
C182        C  0.87807557  0.60577059  0.14267499     0.87400
C183        C  0.59655134  0.74552875  0.42042135     0.79700
N184        N  0.58397489  0.77439111  0.43284876    -0.78600
C185        C  0.59432790  0.81525122  0.42048068     0.82200
N186        N  0.61791671  0.82736264  0.39557273    -0.78500
C187        C  0.63115675  0.79915224  0.38293016     0.82300
N188        N  0.61976508  0.75789813  0.39534843    -0.80200
C189        C  0.75142112  0.89378481  0.23352803     0.79700
N190        N  0.73060581  0.88275939  0.25946017    -0.78600
C191        C  0.72160974  0.84272642  0.27271320     0.82200
N192        N  0.73448227  0.81432701  0.25998271    -0.78500
C193        C  0.75547348  0.82488977  0.23428049     0.82300
N194        N  0.76365478  0.86455368  0.22128823    -0.80200
O195        O  0.57705347  0.04338367  0.49351947    -0.74900
O196        O  0.45766226  0.96906980  0.46028045    -0.74900
O197        O  0.49728098  0.04578821  0.49345858    -0.75000
O198        O  0.53764278  0.96695898  0.46056957    -0.75000
O199        O  0.51436306  0.92255260  0.49910270    -0.75000
O200        O  0.47301154  0.00092575  0.53187693    -0.75000
O201        O  0.43389535  0.92425906  0.49869941    -0.74900
O202        O  0.55343761  0.99915569  0.53218194    -0.75000
Ni203      Ni  0.51817022  0.00787006  0.47560012     1.25400
Ni204      Ni  0.49278100  0.96010108  0.51684946     1.25400
C205        C  0.58512211  0.03351436  0.51826040     0.87300
C206        C  0.42621786  0.93404172  0.47379220     0.87200
C207        C  0.47916022  0.03680923  0.51822397     0.87200
C208        C  0.53298632  0.93183716  0.47446411     0.87400
C209        C  0.42848788  0.23165470  0.57171292     0.79700
N210        N  0.40857191  0.22224580  0.59780110    -0.78600
C211        C  0.39790309  0.18218679  0.61140766     0.82200
N212        N  0.40686587  0.15094994  0.59855099    -0.78500
C213        C  0.42664031  0.15971722  0.57247128     0.82300
N214        N  0.43767162  0.20025232  0.55935545    -0.80200
C215        C  0.27415567  0.09106991  0.76037468     0.79700
N216        N  0.29602647  0.10047155  0.73488609    -0.78600
C217        C  0.30840660  0.14086274  0.72118657     0.82200
N218        N  0.29875016  0.17217410  0.73321792    -0.78500
C219        C  0.27735745  0.16343623  0.75880130     0.82300
N220        N  0.26506110  0.12286196  0.77218159    -0.80200
O221        O  0.13472595  0.31227873  0.79003858    -0.74900
O222        O  0.25181298  0.39363652  0.82417538    -0.74900
O223        O  0.21766564  0.31680949  0.79145272    -0.75000
O224        O  0.16874315  0.38934071  0.82253806    -0.75000
O225        O  0.14604654  0.34498350  0.86119868    -0.75000
O226        O  0.19632024  0.27300061  0.83035224    -0.75000
O227        O  0.22951915  0.34971398  0.86295124    -0.74900
O228        O  0.11298129  0.26810709  0.82874458    -0.75000
Ni229      Ni  0.19401761  0.35462437  0.80568309     1.25400
Ni230      Ni  0.17043503  0.30739519  0.84721327     1.25400
C231        C  0.10464422  0.27655513  0.80373150     0.87300
C232        C  0.25999359  0.38516466  0.84926026     0.87200
C233        C  0.21470795  0.28269735  0.80562613     0.87200
C234        C  0.14955049  0.37937399  0.84699455     0.87400
C235        C  0.24894215  0.23186855  0.81129261    -0.26800
C236        C  0.23246936  0.25386220  0.79325804    -0.14900
C237        C  0.23231248  0.24712675  0.76375576     0.35800
C238        C  0.24857121  0.21868181  0.75287893    -0.26300
C239        C  0.26425239  0.19607090  0.77096426    -0.15500
C240        C  0.26490125  0.20317640  0.80039736     0.36800
N241        N  0.28249155  0.18198726  0.81925376    -0.89700
H242        H  0.24967356  0.23711491  0.83397288     0.18000
H243        H  0.24736322  0.21298777  0.73022741     0.17900
N244        N  0.21394987  0.26750822  0.74482868    -0.88800
H245        H  0.25625514  0.16158773  0.83369487     0.35300
H246        H  0.31008787  0.20831991  0.83054079     0.40400
H247        H  0.18644928  0.24076488  0.73370627     0.40000
H248        H  0.23988596  0.28800221  0.73024992     0.34900
C249        C  0.34664643  0.12601334  0.64788322    -0.26800
C250        C  0.37635462  0.17233427  0.63989197    -0.14900
C251        C  0.38456206  0.20827730  0.65910459     0.35800
C252        C  0.36175664  0.19703461  0.68541096    -0.26300
C253        C  0.33173077  0.15071349  0.69326368    -0.15500
C254        C  0.32426895  0.11491333  0.67424257     0.36800
N255        N  0.29288004  0.06727901  0.68113294    -0.89700
H256        H  0.33980586  0.09810660  0.63333848     0.18000
H257        H  0.36812049  0.22466111  0.70007602     0.17900
N258        N  0.41657903  0.25594867  0.65214712    -0.88800
H259        H  0.31119199  0.04933173  0.68019136     0.35300
H260        H  0.26696624  0.05347995  0.66571339     0.40400
H261        H  0.44960941  0.25964687  0.65054622     0.40000
H262        H  0.41821565  0.27797232  0.66847229     0.34900
C263        C  0.47959468  0.14574956  0.54256624    -0.26800
C264        C  0.43884894  0.12710259  0.55888474    -0.14900
C265        C  0.41104241  0.07824263  0.56137540     0.35800
C266        C  0.42473599  0.04962248  0.54773537    -0.26300
C267        C  0.46549629  0.06843705  0.53144441    -0.15500
C268        C  0.49325500  0.11720269  0.52898837     0.36800
N269        N  0.53638604  0.13891358  0.51381309    -0.89700
H270        H  0.50158254  0.18304552  0.54065412     0.18000
H271        H  0.40311366  0.01229302  0.54971710     0.17900
N272        N  0.36819063  0.05653144  0.57681757    -0.88800
H273        H  0.52990163  0.13016883  0.49242199     0.35300
H274        H  0.55753312  0.12667158  0.52182931     0.40400
H275        H  0.34702924  0.06900332  0.56916845     0.40000
H276        H  0.37511397  0.06499834  0.59821033     0.34900
C277        C  0.55316212  0.90203216  0.43176623    -0.26800
C278        C  0.54892132  0.90163276  0.46138940    -0.14900
C279        C  0.56056083  0.87292345  0.47744581     0.35800
C280        C  0.57544110  0.84545259  0.46362488    -0.26300
C281        C  0.57937634  0.84577449  0.43403022    -0.15500
C282        C  0.56801420  0.87440374  0.41800919     0.36800
N283        N  0.57005479  0.87458493  0.38771745    -0.89700
H284        H  0.54417644  0.92341871  0.41900310     0.18000
H285        H  0.58439891  0.82390209  0.47624981     0.17900
N286        N  0.55887076  0.87156413  0.50774722    -0.88800
H287        H  0.59254332  0.90861914  0.38106091     0.35300
H288        H  0.53698132  0.86458285  0.37995906     0.40400
H289        H  0.52455627  0.85835205  0.51436311     0.40000
H290        H  0.57937179  0.90528047  0.51549895     0.34900
C291        C  0.65105970  0.77565582  0.33750554    -0.26800
C292        C  0.65556140  0.81167763  0.35512739    -0.14900
C293        C  0.68327789  0.85815866  0.34564297     0.35800
C294        C  0.70430359  0.86703975  0.31890875    -0.26300
C295        C  0.69918391  0.83089907  0.30112873    -0.15500
C296        C  0.67249458  0.78450950  0.31098741     0.36800
N297        N  0.66540192  0.74527721  0.29456655    -0.89700
H298        H  0.63018195  0.73984310  0.34421952     0.18000
H299        H  0.72527818  0.90280240  0.31212202     0.17900
N300        N  0.69203162  0.89728215  0.36275404    -0.88800
H301        H  0.69712755  0.74639669  0.29201450     0.35300
H302        H  0.65184668  0.74640888  0.27485440     0.40400
H303        H  0.70523933  0.89460292  0.38226131     0.40000
H304        H  0.66103089  0.89741255  0.36583980     0.34900
C305        C  0.81804799  0.77891108  0.18852202    -0.26800
C306        C  0.79750674  0.73271956  0.19777470    -0.14900
C307        C  0.76218814  0.71664013  0.21840394     0.35800
C308        C  0.74874851  0.74712969  0.22971678    -0.26300
C309        C  0.77005344  0.79375358  0.22097403    -0.15500
C310        C  0.80525255  0.80975380  0.20003391     0.36800
N311        N  0.82889316  0.85740229  0.19095942    -0.89700
H312        H  0.84542498  0.79159476  0.17276438     0.18000
H313        H  0.72120851  0.73396182  0.24534328     0.17900
N314        N  0.73922410  0.66926306  0.22758369    -0.88800
H315        H  0.85274834  0.86291507  0.17485425     0.35300
H316        H  0.84816913  0.87767296  0.20811707     0.40400
H317        H  0.70379359  0.65464089  0.22344364     0.40000
H318        H  0.74339846  0.66891552  0.24948776     0.34900
C319        C  0.97790320  0.18779350  0.79100732    -0.26800
C320        C  0.97751559  0.18275584  0.76148938    -0.14900
C321        C  0.01929431  0.20895159  0.74612875     0.35800
C322        C  0.05997080  0.23911039  0.76048426    -0.26300
C323        C  0.06033306  0.24413696  0.78997957    -0.15500
C324        C  0.01854748  0.21807879  0.80537271     0.36800
N325        N  0.01577930  0.22239323  0.83539739    -0.89700
H326        H  0.94614673  0.16827618  0.80309398     0.18000
H327        H  0.09176690  0.25847537  0.74840597     0.17900
N328        N  0.02200873  0.20511682  0.71610959    -0.88800
H329        H  0.02850325  0.25734193  0.84035230     0.35300
H330        H  0.03600550  0.21070884  0.84536862     0.40400
H331        H  0.00230735  0.21777178  0.70660396     0.40000
H332        H  0.00856164  0.17018071  0.71083465     0.34900
C333        C  0.63530676  0.06440562  0.56075841    -0.26800
C334        C  0.63139166  0.06261539  0.53114931    -0.14900
C335        C  0.67141135  0.08949558  0.51444951     0.35800
C336        C  0.71389016  0.11865234  0.52776915    -0.26300
C337        C  0.71764883  0.12094712  0.55736681    -0.15500
C338        C  0.67785182  0.09348444  0.57406689     0.36800
N339        N  0.68030612  0.09622328  0.60442347    -0.89700
H340        H  0.60471438  0.04403937  0.57365484     0.18000
H341        H  0.74448729  0.13921977  0.51490865     0.17900
N342        N  0.66906313  0.08669228  0.48406900    -0.88800
H343        H  0.64810962  0.07339251  0.61350723     0.35300
H344        H  0.68797264  0.12969321  0.61013943     0.40400
H345        H  0.66088850  0.05304669  0.47840494     0.40000
H346        H  0.70144027  0.10909445  0.47503379     0.34900
C347        C  0.88030202  0.17503962  0.63732017    -0.26800
C348        C  0.83285412  0.15870432  0.63317969    -0.14900
C349        C  0.80085846  0.13215917  0.65459601     0.35800
C350        C  0.81706851  0.12222415  0.67947730    -0.26300
C351        C  0.86456837  0.13879168  0.68367029    -0.15500
C352        C  0.89647599  0.16499648  0.66215740     0.36800
N353        N  0.94495022  0.18032212  0.66518880    -0.89700
H354        H  0.90492489  0.19501829  0.62080887     0.18000
H355        H  0.79246509  0.10235132  0.69602206     0.17900
N356        N  0.75230133  0.11650710  0.65146172    -0.88800
H357        H  0.96374268  0.19959757  0.64755612     0.35300
H358        H  0.94843000  0.15079013  0.66578596     0.40400
H359        H  0.74860625  0.14592421  0.65115932     0.40000
H360        H  0.73348289  0.09684853  0.66897794     0.34900
C361        C  0.81152297  0.97279652  0.79817509    -0.26800
C362        C  0.76452861  0.95035853  0.79044667    -0.14900
C363        C  0.74973299  0.97158617  0.77028156     0.35800
C364        C  0.78209305  0.01359539  0.75794370    -0.26300
C365        C  0.82933604  0.03545022  0.76505591    -0.15500
C366        C  0.84398844  0.01488183  0.78565259     0.36800
N367        N  0.89183086  0.03575360  0.79346924    -0.89700
H368        H  0.82346809  0.95710780  0.81363716     0.18000
H369        H  0.76992979  0.02925086  0.74260417     0.17900
N370        N  0.70206850  0.95223820  0.76238424    -0.88800
H371        H  0.90295256  0.01196542  0.78932403     0.35300
H372        H  0.89430197  0.04200077  0.81526496     0.40400
H373        H  0.68220796  0.94679269  0.78068123     0.40000
H374        H  0.69106069  0.92062001  0.75211251     0.34900
C375        C  0.81646371  0.75781677  0.79653533    -0.26800
C376        C  0.81325293  0.74830388  0.76741879    -0.14900
C377        C  0.78036944  0.75325064  0.75114252     0.35800
C378        C  0.75143883  0.76716280  0.76448084    -0.26300
C379        C  0.75512071  0.77722496  0.79359299    -0.15500
C380        C  0.78792339  0.77208121  0.80970353     0.36800
N381        N  0.79231759  0.78085127  0.83954489    -0.89700
H382        H  0.84117687  0.75387892  0.80939090     0.18000
H383        H  0.72673192  0.77138881  0.75181814     0.17900
N384        N  0.77715021  0.74540897  0.72108327    -0.88800
H385        H  0.82645992  0.80672811  0.84366275     0.35300
H386        H  0.78634102  0.75055801  0.84986375     0.40400
H387        H  0.80818886  0.77096529  0.71201081     0.40000
H388        H  0.75074070  0.74982855  0.71243370     0.34900
C389        C  0.86883550  0.64733957  0.64703682    -0.26800
C390        C  0.82158789  0.61947764  0.64036413    -0.14900
C391        C  0.78800983  0.61490168  0.66060732     0.35800
C392        C  0.80232436  0.63939955  0.68610832    -0.26300
C393        C  0.84953858  0.66828077  0.69235401    -0.15500
C394        C  0.88305263  0.67167037  0.67266643     0.36800
N395        N  0.93158396  0.70085263  0.67809648    -0.89700
H396        H  0.89519788  0.65122701  0.63198060     0.18000
H397        H  0.77609913  0.63563023  0.70124163     0.17900
N398        N  0.73928025  0.58472238  0.65646955    -0.88800
H399        H  0.94583133  0.72541792  0.66185861     0.35300
H400        H  0.94718238  0.68028958  0.67737174     0.40400
H401        H  0.73326974  0.55148127  0.65165009     0.40000
H402        H  0.72833401  0.59720926  0.63970679     0.34900
C403        C  0.89147557  0.53057720  0.51892078    -0.26800
C404        C  0.92305003  0.52516352  0.53586074    -0.14900
C405        C  0.92355418  0.53308268  0.56540769     0.35800
C406        C  0.89298041  0.54601415  0.57698869    -0.26300
C407        C  0.86148416  0.55148149  0.56002007    -0.15500
C408        C  0.86105324  0.54394882  0.53049155     0.36800
N409        N  0.83033816  0.55043394  0.51216327    -0.89700
H410        H  0.89085241  0.52499382  0.49629338     0.18000
H411        H  0.89361879  0.55126884  0.59966188     0.17900
N412        N  0.95370873  0.52735686  0.58446020    -0.88800
H413        H  0.83351237  0.54210440  0.49123537     0.35300
H414        H  0.84086757  0.58577576  0.51232809     0.40400
H415        H  0.98810063  0.55135508  0.57931840     0.40000
H416        H  0.94805031  0.49360929  0.58247060     0.34900
C417        C  0.90210703  0.30279426  0.57146749    -0.26800
C418        C  0.86726424  0.26763022  0.55487289    -0.14900
C419        C  0.86323075  0.27706139  0.52624251     0.35800
C420        C  0.89271540  0.32143817  0.51518093    -0.26300
C421        C  0.92677138  0.35698321  0.53200121    -0.15500
C422        C  0.93166682  0.34707850  0.56042030     0.36800
N423        N  0.96593218  0.38190904  0.57845576    -0.89700
H424        H  0.90602494  0.29641370  0.59348867     0.18000
H425        H  0.88876941  0.32792440  0.49318547     0.17900
N426        N  0.82979303  0.24169194  0.50810949    -0.88800
H427        H  0.98744823  0.36972955  0.58591248     0.35300
H428        H  0.94896571  0.38631282  0.59583654     0.40400
H429        H  0.84748931  0.23736522  0.49111136     0.40000
H430        H  0.80812783  0.25328679  0.50007978     0.34900
C431        C  0.25746898  0.26345702  0.22400357    -0.26800
C432        C  0.20930696  0.23598666  0.21987586    -0.14900
C433        C  0.19183370  0.19465061  0.20390744     0.35800
C434        C  0.22279367  0.18211621  0.19225981    -0.26300
C435        C  0.27072430  0.20920479  0.19664146    -0.15500
C436        C  0.28844184  0.25064576  0.21235566     0.36800
N437        N  0.33766105  0.27994557  0.21589482    -0.89700
H438        H  0.27104228  0.29538677  0.23599932     0.18000
H439        H  0.20925242  0.15014532  0.18028963     0.17900
N440        N  0.14271292  0.16476369  0.20019728    -0.88800
H441        H  0.34492407  0.30919120  0.22794922     0.35300
H442        H  0.35210937  0.29209511  0.19586346     0.40400
H443        H  0.12832909  0.15157386  0.22009455     0.40000
H444        H  0.13582548  0.13618960  0.18757159     0.34900
C445        C  0.10034479  0.39426986  0.42726812    -0.26800
C446        C  0.14729062  0.41609822  0.43511248    -0.14900
C447        C  0.16377335  0.45140031  0.45585927     0.35800
C448        C  0.13327840  0.46372352  0.46837270    -0.26300
C449        C  0.08649574  0.44207961  0.46041889    -0.15500
C450        C  0.06991141  0.40687068  0.43971549     0.36800
N451        N  0.02202825  0.38301546  0.43170930    -0.89700
H452        H  0.08688488  0.36681983  0.41161144     0.18000
H453        H  0.14667503  0.49116535  0.48405984     0.17900
N454        N  0.21168263  0.47589984  0.46381454    -0.88800
H455        H  0.00835509  0.34765170  0.43579934     0.35300
H456        H  0.02025420  0.38716788  0.40990325     0.40400
H457        H  0.21366698  0.47181483  0.48561057     0.40000
H458        H  0.22489916  0.51119303  0.45971289     0.34900
C459        C  0.22350410  0.35515804  0.33601842    -0.26800
C460        C  0.18640588  0.34977980  0.35304315    -0.14900
C461        C  0.14071968  0.32400843  0.34220805     0.35800
C462        C  0.13347617  0.30396564  0.31534442    -0.26300
C463        C  0.17050371  0.30873034  0.29846284    -0.15500
C464        C  0.21627662  0.33518898  0.30912022     0.36800
N465        N  0.25639180  0.34338093  0.29319289    -0.89700
H466        H  0.25882721  0.37524889  0.34361961     0.18000
H467        H  0.09811128  0.28377194  0.30785197     0.17900
N468        N  0.10065818  0.31628071  0.35801734    -0.88800
H469        H  0.25598508  0.35779883  0.27362545     0.35300
H470        H  0.25572556  0.31194323  0.29019130     0.40400
H471        H  0.10214884  0.34805407  0.36130282     0.40000
H472        H  0.10037484  0.30116825  0.37745442     0.34900
C473        C  0.02449350  0.76203354  0.24086566    -0.26800
C474        C  0.05569322  0.80366846  0.22702607    -0.14900
C475        C  0.04347343  0.81255004  0.19994903     0.35800
C476        C  0.00098239  0.78002893  0.18778532    -0.26300
C477        C  0.96959030  0.73890957  0.20187784    -0.15500
C478        C  0.98195017  0.72988000  0.22869207     0.36800
N479        N  0.95168932  0.68810440  0.24377352    -0.89700
H480        H  0.03285648  0.75409293  0.26149247     0.18000
H481        H  0.99208637  0.78750600  0.16719078     0.17900
N482        N  0.07384445  0.85433108  0.18466388    -0.88800
H483        H  0.94382514  0.69727454  0.26334147     0.35300
H484        H  0.96961315  0.67028354  0.24753115     0.40400
H485        H  0.07311100  0.88175287  0.19502523     0.40000
H486        H  0.06138377  0.85340897  0.16425138     0.34900
C487        C  0.20303927  0.95673076  0.19946411    -0.26800
C488        C  0.20336549  0.95323918  0.22906433    -0.14900
C489        C  0.23476873  0.99261950  0.24490212     0.35800
C490        C  0.26525759  0.03412220  0.23070963    -0.26300
C491        C  0.26465216  0.03758110  0.20107426    -0.15500
C492        C  0.23328748  0.99813260  0.18540602     0.36800
N493        N  0.23250502  0.99944198  0.15511778    -0.89700
H494        H  0.17957341  0.92682711  0.18694578     0.18000
H495        H  0.28890784  0.06426082  0.24297977     0.17900
N496        N  0.23499115  0.99084306  0.27530015    -0.88800
H497        H  0.19905105  0.99083826  0.14883907     0.35300
H498        H  0.23935918  0.97405211  0.14728233     0.40400
H499        H  0.20310040  0.98596196  0.28248951     0.40000
H500        H  0.26049798  0.02251326  0.28364303     0.34900
C501        C  0.34161366  0.87773227  0.47778693    -0.26800
C502        C  0.38046684  0.90423855  0.46048345    -0.14900
C503        C  0.37501705  0.90111327  0.43078390     0.35800
C504        C  0.33121451  0.87189123  0.41906002    -0.26300
C505        C  0.29259168  0.84498045  0.43637518    -0.15500
C506        C  0.29786533  0.84836690  0.46602838     0.36800
N507        N  0.25871821  0.82289437  0.48431688    -0.89700
H508        H  0.34502793  0.88002792  0.50061869     0.18000
H509        H  0.32773533  0.86932916  0.39623078     0.17900
N510        N  0.41404338  0.92629577  0.41236221    -0.88800
H511        H  0.25519063  0.84662833  0.49711470     0.35300
H512        H  0.26571530  0.80184305  0.49741379     0.40400
H513        H  0.40709155  0.94738170  0.39926678     0.40000
H514        H  0.41730761  0.90239406  0.39957180     0.34900
C515        C  0.09904976  0.67207372  0.43005375    -0.26800
C516        C  0.14667389  0.69543126  0.43634689    -0.14900
C517        C  0.16348338  0.67508904  0.45580766     0.35800
C518        C  0.13264098  0.63284193  0.46880562    -0.26300
C519        C  0.08516039  0.60955699  0.46247103    -0.15500
C520        C  0.06828698  0.62949682  0.44290205     0.36800
N521        N  0.01982038  0.60725281  0.43647675    -0.89700
H522        H  0.08532496  0.68716147  0.41539191     0.18000
H523        H  0.14627748  0.61759803  0.48344354     0.17900
N524        N  0.21200472  0.69635678  0.46194075    -0.88800
H525        H  0.01593531  0.60122227  0.41466812     0.35300
H526        H  0.00798430  0.63016991  0.44158076     0.40400
H527        H  0.22304854  0.67285594  0.45669837     0.40000
H528        H  0.21641601  0.70253669  0.48372214     0.34900
C529        C  0.21885084  0.84024416  0.34099593    -0.26800
C530        C  0.18250701  0.80793637  0.35821799    -0.14900
C531        C  0.13620124  0.79115658  0.34925645     0.35800
C532        C  0.12768938  0.80704336  0.32380951    -0.26300
C533        C  0.16408170  0.83952478  0.30666332    -0.15500
C534        C  0.21038117  0.85616828  0.31561007     0.36800
N535        N  0.24977962  0.88826739  0.29925251    -0.89700
H536        H  0.25458956  0.85333606  0.34720409     0.18000
H537        H  0.09198252  0.79394162  0.31752895     0.17900
N538        N  0.09692916  0.75895041  0.36565047    -0.88800
H539        H  0.25030768  0.91987394  0.29813834     0.35300
H540        H  0.24720605  0.87476545  0.27891811     0.40400
H541        H  0.09943166  0.77257825  0.38594119     0.40000
H542        H  0.09688970  0.72758968  0.36692814     0.34900
C543        C  0.04249109  0.19619336  0.20122049    -0.26800
C544        C  0.06067572  0.23471277  0.21950889    -0.14900
C545        C  0.03414212  0.25666839  0.22464203     0.35800
C546        C  0.99061578  0.23929080  0.21198532    -0.26300
C547        C  0.97238885  0.20053685  0.19399694    -0.15500
C548        C  0.99912986  0.17906184  0.18844876     0.36800
N549        N  0.98283127  0.13896553  0.17070441    -0.89700
H550        H  0.06180696  0.17854182  0.19700136     0.18000
H551        H  0.97093915  0.25660558  0.21615849     0.17900
N552        N  0.05051024  0.29722145  0.24196621    -0.88800
H553        H  0.97904973  0.14788181  0.15009609     0.35300
H554        H  0.95067399  0.11307854  0.17831961     0.40400
H555        H  0.08293624  0.32271441  0.23444879     0.40000
H556        H  0.05343819  0.28872929  0.26282993     0.34900
C557        C  0.79566640  0.99299106  0.17996796    -0.26800
C558        C  0.79609498  0.02854375  0.19625376    -0.14900
C559        C  0.77800185  0.01814848  0.22410933     0.35800
C560        C  0.76240486  0.97376771  0.23543116    -0.26300
C561        C  0.76371228  0.93871056  0.21953722    -0.15500
C562        C  0.77904734  0.94819231  0.19098986     0.36800
N563        N  0.77758465  0.91248265  0.17308655    -0.89700
H564        H  0.80814645  0.99997030  0.15832500     0.18000
H565        H  0.75010224  0.96722241  0.25712214     0.17900
N566        N  0.77567503  0.05247804  0.24126234    -0.88800
H567        H  0.79106838  0.92551610  0.15300332     0.35300
H568        H  0.74269592  0.88754611  0.17017764     0.40400
H569        H  0.79481676  0.05699181  0.25967141     0.40000
H570        H  0.74104752  0.03974335  0.24709949     0.34900
C571        C  0.09384236  0.38820631  0.87794600    -0.26800
C572        C  0.13155656  0.40822520  0.85910233    -0.14900
C573        C  0.15199838  0.45571392  0.85239566     0.35800
C574        C  0.13505843  0.48241109  0.86490590    -0.26300
C575        C  0.09792874  0.46283203  0.88420873    -0.15500
C576        C  0.07632941  0.41481730  0.89030404     0.36800
N577        N  0.03650637  0.39308051  0.90866263    -0.89700
H578        H  0.07758997  0.35151302  0.88276854     0.18000
H579        H  0.15215742  0.51912177  0.85999539     0.17900
N580        N  0.19113686  0.47752325  0.83368445    -0.88800
H581        H  0.02520890  0.35776579  0.91109641     0.35300
H582        H  0.00956011  0.39514484  0.89874680     0.40400
H583        H  0.21871260  0.50434714  0.84470830     0.40000
H584        H  0.18252339  0.49222926  0.81690468     0.34900
C585        C  0.91951025  0.55138496  0.08748965    -0.26800
C586        C  0.92110634  0.51637822  0.10307303    -0.14900
C587        C  0.91054033  0.51221431  0.13236137     0.35800
C588        C  0.89700980  0.54203082  0.14490079    -0.26300
C589        C  0.89455170  0.57642350  0.12901755    -0.15500
C590        C  0.90648649  0.58120452  0.10000033     0.36800
N591        N  0.90440588  0.61549625  0.08273619    -0.89700
H592        H  0.92723311  0.55516930  0.06506983     0.18000
H593        H  0.88843199  0.53836215  0.16723726     0.17900
N594        N  0.91373357  0.47809816  0.14934991    -0.88800
H595        H  0.88120012  0.59851516  0.06619539     0.35300
H596        H  0.93728288  0.63676518  0.07395855     0.40400
H597        H  0.90399204  0.47916622  0.17027866     0.40000
H598        H  0.94864054  0.48704465  0.14987576     0.34900
C599        C  0.88305493  0.35035638  0.11969611    -0.26800
C600        C  0.91441233  0.36523542  0.09684609    -0.14900
C601        C  0.93151161  0.33593509  0.08753385     0.35800
C602        C  0.91770808  0.29388182  0.10149116    -0.26300
C603        C  0.88708250  0.27965828  0.12467679    -0.15500
C604        C  0.86932338  0.30849728  0.13359466     0.36800
N605        N  0.83645378  0.29616775  0.15624220    -0.89700
H606        H  0.86866105  0.37141354  0.12705049     0.18000
H607        H  0.93151204  0.27228540  0.09417204     0.17900
N608        N  0.96341012  0.34775884  0.06440352    -0.88800
H609        H  0.85184594  0.29465898  0.17513726     0.35300
H610        H  0.80746518  0.26384813  0.15187507     0.40400
H611        H  0.99313164  0.37952124  0.06871446     0.40000
H612        H  0.94765677  0.35027641  0.04592623     0.34900
C613        C  0.01497991  0.46236093  0.01188437    -0.26800
C614        C  0.98586751  0.47985774  0.01948095    -0.14900
C615        C  0.97967002  0.50876521  0.00008045     0.35800
C616        C  0.00190757  0.51865609  0.97376449    -0.26300
C617        C  0.03066677  0.50074536  0.96604829    -0.15500
C618        C  0.03749173  0.47250774  0.98568758     0.36800
N619        N  0.06806182  0.45469470  0.98025339    -0.89700
H620        H  0.02078002  0.44082148  0.02659509     0.18000
H621        H  0.99619609  0.54030810  0.95909159     0.17900
N622        N  0.95028210  0.52777821  0.00599623    -0.88800
H623        H  0.10077334  0.48222527  0.97476556     0.35300
H624        H  0.05482005  0.43086893  0.96365132     0.40400
H625        H  0.96442559  0.55112845  0.02278331     0.40000
H626        H  0.91730406  0.50082477  0.01157286     0.34900
C627        C  0.58478339  0.92306810  0.89539218    -0.26800
C628        C  0.54179610  0.91024058  0.88273911    -0.14900
C629        C  0.52982888  0.88370310  0.85755955     0.35800
C630        C  0.55975396  0.86953268  0.84633393    -0.26300
C631        C  0.60189656  0.88102854  0.85949099    -0.15500
C632        C  0.61504879  0.90917695  0.88402028     0.36800
N633        N  0.65894313  0.92367561  0.89739797    -0.89700
H634        H  0.59504713  0.94403684  0.91440639     0.18000
H635        H  0.54915008  0.84839664  0.82736692     0.17900
N636        N  0.48705008  0.87015226  0.84332107    -0.88800
H637        H  0.66258205  0.94307482  0.91562076     0.35300
H638        H  0.68493290  0.94598355  0.88337419     0.40400
H639        H  0.46822387  0.83391463  0.84225688     0.40000
H640        H  0.49473576  0.88305275  0.82264545     0.34900
C641        C  0.45134440  0.08427199  0.08729905    -0.26800
C642        C  0.48218205  0.07735879  0.10393243    -0.14900
C643        C  0.48385396  0.08548984  0.13343119     0.35800
C644        C  0.45602671  0.10208232  0.14526847    -0.26300
C645        C  0.42606251  0.11018624  0.12843045    -0.15500
C646        C  0.42376221  0.10100613  0.09900631     0.36800
N647        N  0.39450976  0.10988837  0.08080321    -0.89700
H648        H  0.44997673  0.07838201  0.06468144     0.18000
H649        H  0.45756912  0.10840981  0.16784450     0.17900
N650        N  0.51340592  0.07660385  0.15133341    -0.88800
H651        H  0.39575115  0.09977232  0.06000303     0.35300
H652        H  0.40805174  0.14581444  0.08027940     0.40400
H653        H  0.50118379  0.04090762  0.15078483     0.40000
H654        H  0.51089864  0.08487239  0.17238389     0.34900
C655        C  0.64231461  0.10396216  0.12671718    -0.26800
C656        C  0.63194464  0.08105986  0.10039177    -0.14900
C657        C  0.66602020  0.07367770  0.08720381     0.35800
C658        C  0.70912476  0.08971370  0.10044915    -0.26300
C659        C  0.71939463  0.11266495  0.12671078    -0.15500
C660        C  0.68545405  0.12016950  0.13986073     0.36800
N661        N  0.69468996  0.14454546  0.16635362    -0.89700
H662        H  0.61687270  0.11014557  0.13713398     0.18000
H663        H  0.73478283  0.08371487  0.09014069     0.17900
N664        N  0.65719904  0.05003434  0.06047905    -0.88800
H665        H  0.66527488  0.14503700  0.17372955     0.35300
H666        H  0.71979962  0.17913784  0.16252615     0.40400
H667        H  0.63226936  0.01528324  0.06399108     0.40000
H668        H  0.68681431  0.05000069  0.05304252     0.34900
C669        C  0.55803441  0.02339904  0.00164918    -0.26800
C670        C  0.52149899  0.01431924  0.02040004    -0.14900
C671        C  0.47521200  0.98576764  0.01096470     0.35800
C672        C  0.46684849  0.96776262  0.98350524    -0.26300
C673        C  0.50329839  0.97709772  0.96475760    -0.15500
C674        C  0.54953872  0.00548475  0.97394249     0.36800
N675        N  0.58773100  0.01671506  0.95506927    -0.89700
H676        H  0.59357192  0.04537744  0.00842702     0.18000
H677        H  0.43121067  0.94554442  0.97694374     0.17900
N678        N  0.43575553  0.97295943  0.02883940    -0.88800
H679        H  0.61940285  0.03744324  0.96523134     0.35300
H680        H  0.58593342  0.03668347  0.93858457     0.40400
H681        H  0.43368943  0.00251386  0.03368047     0.40000
H682        H  0.43952577  0.95812356  0.04740711     0.34900
C683        C  0.01233430  0.77300875  0.81052780    -0.26800
C684        C  0.05025284  0.78111146  0.79336718    -0.14900
C685        C  0.04309880  0.77213258  0.76402915     0.35800
C686        C  0.99882477  0.75574683  0.75254070    -0.26300
C687        C  0.96111873  0.74828674  0.76961863    -0.15500
C688        C  0.96784560  0.75634194  0.79907706     0.36800
N689        N  0.92947381  0.74692595  0.81736751    -0.89700
H690        H  0.01719817  0.77908073  0.83311168     0.18000
H691        H  0.99428631  0.74989767  0.72991612     0.17900
N692        N  0.08078298  0.78058090  0.74557572    -0.88800
H693        H  0.94039855  0.75506186  0.83836455     0.35300
H694        H  0.90626693  0.71117859  0.81676342     0.40400
H695        H  0.08391931  0.80464309  0.73025539     0.40000
H696        H  0.07236718  0.74950867  0.73528421     0.34900
C697        C  0.20798844  0.98325351  0.80634076    -0.26800
C698        C  0.22489748  0.95489553  0.79599798    -0.14900
C699        C  0.26041808  0.97307947  0.77515956     0.35800
C700        C  0.27649752  0.01774368  0.76458299    -0.26300
C701        C  0.25836017  0.04547143  0.77416067    -0.15500
C702        C  0.22423404  0.02808202  0.79572804     0.36800
N703        N  0.20502873  0.05511852  0.80661618    -0.89700
H704        H  0.18125715  0.97036222  0.82252580     0.18000
H705        H  0.30339385  0.03065947  0.74850357     0.17900
N706        N  0.28172925  0.94777178  0.76461214    -0.88800
H707        H  0.21097785  0.05899809  0.82842705     0.35300
H708        H  0.16917422  0.03665747  0.80336707     0.40400
H709        H  0.25696472  0.91839391  0.75381826     0.40000
H710        H  0.29472297  0.93781662  0.78167750     0.34900
C711        C  0.09647574  0.64528775  0.90279717    -0.26800
C712        C  0.09852950  0.61101820  0.88643678    -0.14900
C713        C  0.11498964  0.62186421  0.85823856     0.35800
C714        C  0.13006189  0.66639439  0.84749553    -0.26300
C715        C  0.12891828  0.70092506  0.86403584    -0.15500
C716        C  0.11138488  0.68981522  0.89196163     0.36800
N717        N  0.10902130  0.72357380  0.90966587    -0.89700
H718        H  0.08388301  0.63794920  0.92441367     0.18000
H719        H  0.14272802  0.67376179  0.82588995     0.17900
N720        N  0.11631131  0.58792137  0.84015388    -0.88800
H721        H  0.12867016  0.72795231  0.92782014     0.35300
H722        H  0.07448573  0.71037746  0.91587803     0.40400
H723        H  0.15057276  0.60070875  0.83347675     0.40000
H724        H  0.09611519  0.58379343  0.82230821     0.34900
C725        C  0.35685112  0.90548144  0.90340225    -0.26800
C726        C  0.39298018  0.91019105  0.88564881    -0.14900
C727        C  0.38372359  0.90001903  0.85656249     0.35800
C728        C  0.33866111  0.88305480  0.84627077    -0.26300
C729        C  0.30214641  0.87664460  0.86420009    -0.15500
C730        C  0.31183364  0.88908204  0.89299532     0.36800
N731        N  0.27609614  0.88444174  0.91197201    -0.89700
H732        H  0.36312510  0.91355869  0.92573499     0.18000
H733        H  0.33246279  0.87515755  0.82390941     0.17900
N734        N  0.41995068  0.90757150  0.83712644    -0.88800
H735        H  0.28637027  0.91705553  0.92071570     0.35300
H736        H  0.27335387  0.86216207  0.92838983     0.40400
H737        H  0.42223980  0.93130922  0.82182627     0.40000
H738        H  0.41033643  0.87614755  0.82691084     0.34900
C739        C  0.30428761  0.43630523  0.46013734    -0.26800
C740        C  0.29181312  0.40946309  0.43528150    -0.14900
C741        C  0.32306196  0.39639516  0.42390573     0.35800
C742        C  0.36646471  0.41242616  0.43678891    -0.26300
C743        C  0.37943458  0.44055800  0.46108482    -0.15500
C744        C  0.34754323  0.45225766  0.47301622     0.36800
N745        N  0.35920983  0.48109454  0.49780133    -0.89700
H746        H  0.28074013  0.44632441  0.46931875     0.18000
H747        H  0.39026675  0.40257888  0.42775725     0.17900
N748        N  0.31098505  0.36697632  0.39938859    -0.88800
H749        H  0.33106741  0.48446308  0.50453108     0.35300
H750        H  0.38533041  0.51438530  0.49202615     0.40400
H751        H  0.28368917  0.33431356  0.40519284     0.40000
H752        H  0.33842953  0.36201041  0.39329938     0.34900
C753        C  0.46817602  0.32832866  0.51668111    -0.26800
C754        C  0.46492459  0.36288677  0.53196893    -0.14900
C755        C  0.44908810  0.35361424  0.56028924     0.35800
C756        C  0.43722459  0.31071465  0.57257252    -0.26300
C757        C  0.44083377  0.27625643  0.55736270    -0.15500
C758        C  0.45640882  0.28546815  0.52895589     0.36800
N759        N  0.46025847  0.25157586  0.51223342    -0.89700
H760        H  0.48012966  0.33443977  0.49491525     0.18000
H761        H  0.42551696  0.30477185  0.59438342     0.17900
N762        N  0.44529396  0.38760924  0.57692766    -0.88800
H763        H  0.49466264  0.26606044  0.50540608     0.35300
H764        H  0.43927259  0.24435178  0.49437994     0.40400
H765        H  0.46624761  0.39482273  0.59479848     0.40000
H766        H  0.41089378  0.37315986  0.58375247     0.34900
C767        C  0.64626262  0.56149643  0.55164432    -0.26800
C768        C  0.63263634  0.53088906  0.52850404    -0.14900
C769        C  0.66243356  0.51481364  0.51900782     0.35800
C770        C  0.70414176  0.52860024  0.53335633    -0.26300
C771        C  0.71710672  0.55790571  0.55716969    -0.15500
C772        C  0.68828331  0.57569804  0.56582362     0.36800
N773        N  0.70163649  0.60836281  0.58871392    -0.89700
H774        H  0.62408940  0.57476777  0.55869435     0.18000
H775        H  0.72599600  0.51504132  0.52619738     0.17900
N776        N  0.64998056  0.48361456  0.49534003    -0.88800
H777        H  0.67597624  0.61701209  0.59278802     0.35300
H778        H  0.73110903  0.63893977  0.58218698     0.40400
H779        H  0.62151651  0.45195430  0.50151668     0.40000
H780        H  0.67664067  0.47676338  0.49042937     0.34900
C781        C  0.56504762  0.64970928  0.47440859    -0.26800
C782        C  0.55184610  0.61088992  0.45691773    -0.14900
C783        C  0.55484997  0.61723425  0.42711413     0.35800
C784        C  0.57036088  0.66146949  0.41579582    -0.26300
C785        C  0.58287366  0.69995461  0.43335881    -0.15500
C786        C  0.58062131  0.69395068  0.46295341     0.36800
N787        N  0.59506141  0.73285053  0.48151265    -0.89700
H788        H  0.56370646  0.64590614  0.49722477     0.18000
H789        H  0.57157980  0.66552876  0.39299567     0.17900
N790        N  0.54105921  0.57950801  0.40768302    -0.88800
H791        H  0.62190238  0.73535069  0.49418915     0.35300
H792        H  0.56712807  0.72626352  0.49470478     0.40400
H793        H  0.50682902  0.55409492  0.41216206     0.40000
H794        H  0.56288666  0.56561044  0.41011372     0.34900
C795        C  0.32045465  0.39736958  0.88407568    -0.26800
C796        C  0.30518004  0.41602969  0.86286485    -0.14900
C797        C  0.33283446  0.46358973  0.85594032     0.35800
C798        C  0.37414205  0.49104976  0.87054502    -0.26300
C799        C  0.38945119  0.47259022  0.89201025    -0.15500
C800        C  0.36192312  0.42465314  0.89855520     0.36800
N801        N  0.37496930  0.40201909  0.91932507    -0.89700
H802        H  0.30003798  0.36087718  0.88946228     0.18000
H803        H  0.39422353  0.52748762  0.86502172     0.17900
N804        N  0.31960703  0.48554619  0.83479074    -0.88800
H805        H  0.37560699  0.41602862  0.93921741     0.35300
H806        H  0.40779012  0.40710906  0.91426060     0.40400
H807        H  0.28672087  0.48035554  0.83979842     0.40000
H808        H  0.31856222  0.47063086  0.81513341     0.34900
C809        C  0.51592298  0.64082737  0.87583826    -0.26800
C810        C  0.53572351  0.62145477  0.89358026    -0.14900
C811        C  0.58457810  0.64535425  0.89691264     0.35800
C812        C  0.61188351  0.68703934  0.88249552    -0.26300
C813        C  0.59208384  0.70596096  0.86457923    -0.15500
C814        C  0.54334509  0.68252502  0.86139451     0.36800
N815        N  0.52050932  0.70072908  0.84442095    -0.89700
H816        H  0.47862076  0.62354706  0.87319460     0.18000
H817        H  0.64921211  0.70460141  0.88511556     0.17900
N818        N  0.60789743  0.62789115  0.91403531    -0.88800
H819        H  0.53062988  0.70199243  0.82333786     0.35300
H820        H  0.53063274  0.73434002  0.85133931     0.40400
H821        H  0.59849211  0.59439836  0.90725497     0.40000
H822        H  0.59805032  0.62703724  0.93514218     0.34900
C823        C  0.65976354  0.49513095  0.11458387    -0.26800
C824        C  0.63950676  0.51536945  0.09809305    -0.14900
C825        C  0.66224135  0.56411800  0.09567890     0.40300
C826        C  0.70451805  0.59150356  0.10965346    -0.26300
C827        C  0.72438514  0.57124564  0.12645107    -0.15500
C828        C  0.70167405  0.52231953  0.12870576     0.36800
N829        N  0.72092077  0.49908882  0.14433804    -0.89700
H830        H  0.64304879  0.45770008  0.11641131     0.18000
H831        H  0.72146561  0.62894377  0.10777472     0.17900
N832        N  0.64193796  0.58610845  0.07984293    -0.88800
H833        H  0.72244422  0.50775689  0.16571458     0.35300
H834        H  0.75448385  0.51025763  0.13684546     0.40400
H835        H  0.66552125  0.60653657  0.06412942     0.40000
H836        H  0.63706844  0.60809152  0.09349800     0.34900
C837        C  0.50904964  0.35161106  0.11837725    -0.26800
C838        C  0.49040947  0.36981654  0.09891627    -0.14900
C839        C  0.44218477  0.34468177  0.09336928     0.35800
C840        C  0.41436456  0.30160207  0.10671929    -0.26300
C841        C  0.43324690  0.28361234  0.12608258    -0.15500
C842        C  0.48109325  0.30909947  0.13195229     0.36800
N843        N  0.50184592  0.29143734  0.15110043    -0.89700
H844        H  0.54587400  0.37009792  0.12290919     0.18000
H845        H  0.37747266  0.28240945  0.10243254     0.17900
N846        N  0.42133663  0.36311551  0.07470112    -0.88800
H847        H  0.51794938  0.31578294  0.16726032     0.35300
H848        H  0.52749414  0.28833051  0.14011238     0.40400
H849        H  0.42458358  0.39302902  0.08417246     0.40000
H850        H  0.38576982  0.33995680  0.07264732     0.34900
C851        C  0.54697911  0.52182907  0.97515475    -0.26800
C852        C  0.50013896  0.50782328  0.97053986    -0.14900
C853        C  0.46676412  0.48031551  0.99113079     0.35800
C854        C  0.48095273  0.46713669  0.01568692    -0.26300
C855        C  0.52782935  0.48137009  0.02041148    -0.15500
C856        C  0.56115959  0.50851892  0.99968299     0.36800
N857        N  0.60905917  0.52158312  0.00323689    -0.89700
H858        H  0.57255259  0.54236892  0.95921218     0.18000
H859        H  0.45531481  0.44655056  0.03158615     0.17900
N860        N  0.41877834  0.46679475  0.98743162    -0.88800
H861        H  0.62899934  0.54164199  0.98613755     0.35300
H862        H  0.61097544  0.49115055  0.00299558     0.40400
H863        H  0.41644117  0.49699056  0.98772536     0.40000
H864        H  0.39875429  0.44638100  0.00439787     0.34900
loop_ 
_geom_bond_atom_site_label_1 
_geom_bond_atom_site_label_2 
_geom_bond_distance 
_geom_bond_site_symmetry_2 
_ccdc_geom_bond_type 
C1            N2   1.359       .  A
C1            N6   1.357       .  A
C1          C838   1.488       .  S
N2            C3   1.360       .  A
C3            N4   1.360       .  A
C3          C855   1.484       .  S
N4            C5   1.358       .  A
C5            N6   1.356       .  A
C5          C824   1.481       .  S
C7            N8   1.357       .  A
C7           N12   1.357       .  A
C7          C799   1.490       .  S
N8            C9   1.357       .  A
C9           N10   1.358       .  A
C9          C810   1.486       .  S
N10          C11   1.359       .  A
C11          N12   1.358       .  A
C11         C852   1.482       .  S
O13         Ni21   1.909       .  S
O13          C23   1.280       .  A
O14         Ni21   1.910       .  S
O14          C24   1.280       .  A
O15         Ni21   1.917       .  S
O15          C25   1.281       .  A
O16         Ni21   1.919       .  S
O16          C26   1.283       .  A
O17         Ni22   1.913       .  S
O17          C26   1.279       .  A
O18         Ni22   1.913       .  S
O18          C25   1.281       .  A
O19         Ni22   1.917       .  S
O19          C24   1.282       .  A
O20         Ni22   1.916       .  S
O20          C23   1.281       .  A
Ni21        Ni22   2.382       .  S
C23         C768   1.485       .  S
C24         C743   1.488       .  S
C25         C754   1.489       .  S
C26         C782   1.486       .  S
O27         Ni35   1.913       .  S
O27          C37   1.282       .  A
O28         Ni35   1.910       .  S
O28          C38   1.279       .  A
O29         Ni35   1.911       .  S
O29          C39   1.281       .  A
O30         Ni35   1.913       .  S
O30          C40   1.280       .  A
O31         Ni36   1.920       .  S
O31          C40   1.283       .  A
O32         Ni36   1.919       .  S
O32          C39   1.282       .  A
O33         Ni36   1.913       .  S
O33          C38   1.281       .  A
O34         Ni36   1.914       .  S
O34          C37   1.280       .  A
Ni35        Ni36   2.383       .  S
C37         C715   1.487       .  S
C38         C698   1.483       .  S
C39         C729   1.486       .  S
C40         C684   1.487       .  S
C41          N42   1.358       .  A
C41          N46   1.360       .  A
C41         C656   1.494       .  S
N42          C43   1.355       .  A
C43          N44   1.358       .  A
C43         C642   1.485       .  S
N44          C45   1.357       .  A
C45          N46   1.360       .  A
C45         C670   1.490       .  S
C47          N48   1.359       .  A
C47          N52   1.358       .  A
C47         C726   1.488       .  S
N48          C49   1.359       .  A
C49          N50   1.358       .  A
C49         C673   1.485       .  S
N50          C51   1.359       .  A
C51          N52   1.358       .  A
C51         C628   1.493       .  S
C53          N54   1.359       .  A
C53          N58   1.357       .  A
C53         C600   1.491       .  S
N54          C55   1.355       .  A
C55          N56   1.357       .  A
C55         C586   1.484       .  S
N56          C57   1.355       .  A
C57          N58   1.359       .  A
C57         C614   1.481       .  S
C59          N60   1.356       .  A
C59          N64   1.360       .  A
C59         C712   1.489       .  S
N60          C61   1.355       .  A
C61          N62   1.355       .  A
C61         C575   1.481       .  S
N62          C63   1.356       .  A
C63          N64   1.360       .  A
C63         C617   1.482       .  S
O65         Ni73   1.916       .  S
O65          C75   1.281       .  A
O66         Ni73   1.918       .  S
O66          C76   1.282       .  A
O67         Ni73   1.907       .  S
O67          C77   1.278       .  A
O68         Ni73   1.911       .  S
O68          C78   1.279       .  A
O69         Ni74   1.921       .  S
O69          C78   1.284       .  A
O70         Ni74   1.920       .  S
O70          C77   1.283       .  A
O71         Ni74   1.915       .  S
O71          C76   1.280       .  A
O72         Ni74   1.911       .  S
O72          C75   1.281       .  A
Ni73        Ni74   2.382       .  S
C75         C659   1.489       .  S
C76         C547   1.483       .  S
C77         C603   1.485       .  S
C78         C558   1.490       .  S
C79          N80   1.356       .  A
C79          N84   1.355       .  A
C79         C505   1.478       .  S
N80          C81   1.359       .  A
C81          N82   1.360       .  A
C81         C530   1.488       .  S
N82          C83   1.361       .  A
C83          N84   1.356       .  A
C83         C516   1.486       .  S
C85          N86   1.358       .  A
C85          N90   1.360       .  A
C85         C474   1.496       .  S
N86          C87   1.358       .  A
C87          N88   1.357       .  A
C87         C488   1.486       .  S
N88          C89   1.358       .  A
C89          N90   1.360       .  A
C89         C533   1.488       .  S
C91          N92   1.358       .  A
C91          N96   1.357       .  A
C91         C740   1.492       .  S
N92          C93   1.360       .  A
C93          N94   1.357       .  A
C93         C460   1.487       .  S
N94          C95   1.357       .  A
C95          N96   1.355       .  A
C95         C446   1.482       .  S
C97          N98   1.358       .  A
C97         N102   1.357       .  A
C97         C544   1.490       .  S
N98          C99   1.357       .  A
C99         N100   1.357       .  A
C99         C432   1.482       .  S
N100        C101   1.357       .  A
C101        N102   1.360       .  A
C101        C463   1.489       .  S
O103       Ni111   1.915       .  S
O103        C113   1.281       .  A
O104       Ni111   1.920       .  S
O104        C114   1.282       .  A
O105       Ni111   1.926       .  S
O105        C115   1.284       .  A
O106       Ni111   1.925       .  S
O106        C116   1.283       .  A
O107       Ni112   1.903       .  S
O107        C116   1.279       .  A
O108       Ni112   1.905       .  S
O108        C115   1.279       .  A
O109       Ni112   1.915       .  S
O109        C114   1.281       .  A
O110       Ni112   1.917       .  S
O110        C113   1.282       .  A
Ni111      Ni112   2.386       .  S
C113        C841   1.481       .  S
C114        C491   1.487       .  S
C115        C645   1.487       .  S
C116        C435   1.475       .  S
O117       Ni125   1.915       .  S
O117        C127   1.282       .  A
O118       Ni125   1.914   1_655  S
O118        C128   1.281       .  A
O119       Ni125   1.908       .  S
O119        C129   1.280       .  A
O120       Ni125   1.912   1_655  S
O120        C130   1.279       .  A
O121       Ni126   1.913       .  S
O121        C130   1.282       .  A
O122       Ni126   1.914   1_455  S
O122        C129   1.281       .  A
O123       Ni126   1.912       .  S
O123        C128   1.281       .  A
O124       Ni126   1.915   1_455  S
O124        C127   1.281       .  A
Ni125      Ni126   2.385   1_455  S
C127        C519   1.479       .  S
C128        C421   1.485       .  S
C129        C449   1.477       .  S
C130        C404   1.486       .  S
C131        N132   1.360       .  A
C131        N136   1.356       .  A
C131        C771   1.490       .  S
N132        C133   1.360       .  A
C133        N134   1.359       .  A
C133        C390   1.485       .  S
N134        C135   1.357       .  A
C135        N136   1.354       .  A
C135        C407   1.485       .  S
C137        N138   1.359       .  A
C137        N142   1.357       .  A
C137        C687   1.483       .  S
N138        C139   1.359       .  A
C139        N140   1.358       .  A
C139        C393   1.482       .  S
N140        C141   1.357       .  A
C141        N142   1.358       .  A
C141        C376   1.484       .  S
O143       Ni151   1.910       .  S
O143        C153   1.280       .  A
O144       Ni151   1.909       .  S
O144        C154   1.280       .  A
O145       Ni151   1.915       .  S
O145        C155   1.281       .  A
O146       Ni151   1.913       .  S
O146        C156   1.281       .  A
O147       Ni152   1.916       .  S
O147        C156   1.282       .  A
O148       Ni152   1.912       .  S
O148        C155   1.281       .  A
O149       Ni152   1.912       .  S
O149        C154   1.280       .  A
O150       Ni152   1.917       .  S
O150        C153   1.281       .  A
Ni151      Ni152   2.385       .  S
C153        C813   1.477       .  S
C154        C362   1.477       .  S
C155        C631   1.486       .  S
C156        C379   1.486       .  S
C157        N158   1.358       .  A
C157        N162   1.355       .  A
C157        C418   1.484       .  S
N158        C159   1.359       .  A
C159        N160   1.358       .  A
C159        C337   1.480       .  S
N160        C161   1.358       .  A
C161        N162   1.355       .  A
C161        C348   1.478       .  S
C163        N164   1.356       .  A
C163        N168   1.355       .  A
C163        C365   1.481       .  S
N164        C165   1.358       .  A
C165        N166   1.358       .  A
C165        C320   1.477       .  S
N166        C167   1.358       .  A
C167        N168   1.355       .  A
C167        C351   1.478       .  S
O169       Ni177   1.913       .  S
O169        C179   1.282       .  A
O170       Ni177   1.914       .  S
O170        C180   1.280       .  A
O171       Ni177   1.901       .  S
O171        C181   1.279       .  A
O172       Ni177   1.902       .  S
O172        C182   1.278       .  A
O173       Ni178   1.919       .  S
O173        C182   1.282       .  A
O174       Ni178   1.920       .  S
O174        C181   1.282       .  A
O175       Ni178   1.917       .  S
O175        C180   1.281       .  A
O176       Ni178   1.920       .  S
O176        C179   1.282       .  A
Ni177      Ni178   2.385       .  S
C179        C477   1.491       .  S
C180        C827   1.478       .  S
C181        C306   1.478       .  S
C182        C589   1.483       .  S
C183        N184   1.356       .  A
C183        N188   1.359       .  A
C183        C785   1.480       .  S
N184        C185   1.357       .  A
C185        N186   1.357       .  A
C185        C281   1.479       .  S
N186        C187   1.357       .  A
C187        N188   1.361       .  A
C187        C292   1.488       .  S
C189        N190   1.363       .  A
C189        N194   1.356       .  A
C189        C561   1.493       .  S
N190        C191   1.363       .  A
C191        N192   1.356       .  A
C191        C295   1.488       .  S
N192        C193   1.355       .  A
C193        N194   1.354       .  A
C193        C309   1.484       .  S
O195       Ni203   1.910       .  S
O195        C205   1.280       .  A
O196       Ni203   1.912   1_565  S
O196        C206   1.280       .  A
O197       Ni203   1.912       .  S
O197        C207   1.280       .  A
O198       Ni203   1.911   1_565  S
O198        C208   1.281       .  A
O199       Ni204   1.915       .  S
O199        C208   1.280       .  A
O200       Ni204   1.915   1_545  S
O200        C207   1.281       .  A
O201       Ni204   1.916       .  S
O201        C206   1.282       .  A
O202       Ni204   1.917       .  S
O202        C205   1.282   1_565  A
Ni203      Ni204   2.386   1_545  S
C205        C334   1.481       .  S
C206        C502   1.481       .  S
C207        C267   1.476       .  S
C208        C278   1.483       .  S
C209        N210   1.358       .  A
C209        N214   1.357       .  A
C209        C757   1.491       .  S
N210        C211   1.358       .  A
C211        N212   1.358       .  A
C211        C250   1.481       .  S
N212        C213   1.356       .  A
C213        N214   1.358       .  A
C213        C264   1.480       .  S
C215        N216   1.358       .  A
C215        N220   1.356       .  A
C215        C701   1.485       .  S
N216        C217   1.357       .  A
C217        N218   1.357       .  A
C217        C253   1.480       .  S
N218        C219   1.357       .  A
C219        N220   1.356       .  A
C219        C239   1.473       .  S
O221       Ni229   1.912       .  S
O221        C231   1.281       .  A
O222       Ni229   1.913       .  S
O222        C232   1.280       .  A
O223       Ni229   1.907       .  S
O223        C233   1.279       .  A
O224       Ni229   1.907       .  S
O224        C234   1.279       .  A
O225       Ni230   1.915       .  S
O225        C234   1.281       .  A
O226       Ni230   1.914       .  S
O226        C233   1.281       .  A
O227       Ni230   1.908       .  S
O227        C232   1.281       .  A
O228       Ni230   1.907       .  S
O228        C231   1.278       .  A
Ni229      Ni230   2.388       .  S
C231        C323   1.475       .  S
C232        C796   1.480       .  S
C233        C236   1.474       .  S
C234        C572   1.476       .  S
C235        C236   1.403       .  A
C235        C240   1.400       .  A
C235        H242   1.084       .  S
C236        C237   1.411       .  A
C237        C238   1.400       .  A
C237        N244   1.433       .  S
C238        C239   1.402       .  A
C238        H243   1.084       .  S
C239        C240   1.409       .  A
C240        N241   1.432       .  S
N241        H245   1.046       .  S
N241        H246   1.046       .  S
N244        H247   1.046       .  S
N244        H248   1.046       .  S
C249        C250   1.404       .  A
C249        C254   1.401       .  A
C249        H256   1.083       .  S
C250        C251   1.414       .  A
C251        C252   1.404       .  A
C251        N258   1.438       .  S
C252        C253   1.404       .  A
C252        H257   1.084       .  S
C253        C254   1.411       .  A
C254        N255   1.433       .  S
N255        H259   1.046       .  S
N255        H260   1.046       .  S
N258        H261   1.046       .  S
N258        H262   1.046       .  S
C263        C264   1.404       .  A
C263        C268   1.395       .  A
C263        H270   1.084       .  S
C264        C265   1.417       .  A
C265        C266   1.400       .  A
C265        N272   1.432       .  S
C266        C267   1.403       .  A
C266        H271   1.084       .  S
C267        C268   1.414       .  A
C268        N269   1.433       .  S
N269        H273   1.044       .  S
N269        H274   1.046       .  S
N272        H275   1.046       .  S
N272        H276   1.044       .  S
C277        C278   1.406       .  A
C277        C282   1.400       .  A
C277        H284   1.084       .  S
C278        C279   1.418       .  A
C279        C280   1.398       .  A
C279        N286   1.432       .  S
C280        C281   1.403       .  A
C280        H285   1.084       .  S
C281        C282   1.410       .  A
C282        N283   1.432       .  S
N283        H287   1.046       .  S
N283        H288   1.046       .  S
N286        H289   1.045       .  S
N286        H290   1.046       .  S
C291        C292   1.404       .  A
C291        C296   1.396       .  A
C291        H298   1.084       .  S
C292        C293   1.420       .  A
C293        C294   1.400       .  A
C293        N300   1.432       .  S
C294        C295   1.405       .  A
C294        H299   1.084       .  S
C295        C296   1.420       .  A
C296        N297   1.432       .  S
N297        H301   1.044       .  S
N297        H302   1.045       .  S
N300        H303   1.046       .  S
N300        H304   1.044       .  S
C305        C306   1.403       .  A
C305        C310   1.401       .  A
C305        H312   1.084       .  S
C306        C307   1.408       .  A
C307        C308   1.402       .  A
C307        N314   1.432       .  S
C308        C309   1.407       .  A
C308        H313   1.082       .  S
C309        C310   1.416       .  A
C310        N311   1.438       .  S
N311        H315   1.046       .  S
N311        H316   1.046       .  S
N314        H317   1.046       .  S
N314        H318   1.046       .  S
C319        C320   1.404       .  A
C319        C324   1.396   1_655  A
C319        H326   1.084       .  S
C320        C321   1.415   1_655  A
C321        C322   1.395       .  A
C321        N328   1.430       .  S
C322        C323   1.403       .  A
C322        H327   1.084       .  S
C323        C324   1.415       .  A
C324        N325   1.433       .  S
N325        H329   1.046       .  S
N325        H330   1.044       .  S
N328        H331   1.043       .  S
N328        H332   1.046       .  S
C333        C334   1.404       .  A
C333        C338   1.404       .  A
C333        H340   1.084       .  S
C334        C335   1.414       .  A
C335        C336   1.403       .  A
C335        N342   1.438       .  S
C336        C337   1.403       .  A
C336        H341   1.084       .  S
C337        C338   1.413       .  A
C338        N339   1.437       .  S
N339        H343   1.046       .  S
N339        H344   1.046       .  S
N342        H345   1.046       .  S
N342        H346   1.046       .  S
C347        C348   1.404       .  A
C347        C352   1.402       .  A
C347        H354   1.084       .  S
C348        C349   1.411       .  A
C349        C350   1.402       .  A
C349        N356   1.437       .  S
C350        C351   1.405       .  A
C350        H355   1.084       .  S
C351        C352   1.411       .  A
C352        N353   1.436       .  S
N353        H357   1.046       .  S
N353        H358   1.046       .  S
N356        H359   1.046       .  S
N356        H360   1.046       .  S
C361        C362   1.405       .  A
C361        C366   1.401   1_565  A
C361        H368   1.084       .  S
C362        C363   1.415       .  A
C363        C364   1.395   1_565  A
C363        N370   1.433       .  S
C364        C365   1.405       .  A
C364        H369   1.084       .  S
C365        C366   1.412       .  A
C366        N367   1.433       .  S
N367        H371   1.046       .  S
N367        H372   1.046       .  S
N370        H373   1.046       .  S
N370        H374   1.044       .  S
C375        C376   1.404       .  A
C375        C380   1.400       .  A
C375        H382   1.084       .  S
C376        C377   1.415       .  A
C377        C378   1.406       .  A
C377        N384   1.438       .  S
C378        C379   1.406       .  A
C378        H383   1.083       .  S
C379        C380   1.412       .  A
C380        N381   1.433       .  S
N381        H385   1.046       .  S
N381        H386   1.046       .  S
N384        H387   1.046       .  S
N384        H388   1.046       .  S
C389        C390   1.406       .  A
C389        C394   1.401       .  A
C389        H396   1.084       .  S
C390        C391   1.417       .  A
C391        C392   1.399       .  A
C391        N398   1.432       .  S
C392        C393   1.405       .  A
C392        H397   1.084       .  S
C393        C394   1.410       .  A
C394        N395   1.432       .  S
N395        H399   1.046       .  S
N395        H400   1.046       .  S
N398        H401   1.046       .  S
N398        H402   1.043       .  S
C403        C404   1.405       .  A
C403        C408   1.402       .  A
C403        H410   1.083       .  S
C404        C405   1.419       .  A
C405        C406   1.397       .  A
C405        N412   1.433       .  S
C406        C407   1.404       .  A
C406        H411   1.084       .  S
C407        C408   1.416       .  A
C408        N409   1.438       .  S
N409        H413   1.046       .  S
N409        H414   1.046       .  S
N412        H415   1.045       .  S
N412        H416   1.046       .  S
C417        C418   1.406       .  A
C417        C422   1.400       .  A
C417        H424   1.084       .  S
C418        C419   1.411       .  A
C419        C420   1.402       .  A
C419        N426   1.433       .  S
C420        C421   1.407       .  A
C420        H425   1.083       .  S
C421        C422   1.412       .  A
C422        N423   1.433       .  S
N423        H427   1.046       .  S
N423        H428   1.046       .  S
N426        H429   1.046       .  S
N426        H430   1.046       .  S
C431        C432   1.407       .  A
C431        C436   1.407       .  A
C431        H438   1.083       .  S
C432        C433   1.414       .  A
C433        C434   1.401       .  A
C433        N440   1.438       .  S
C434        C435   1.402       .  A
C434        H439   1.084       .  S
C435        C436   1.410       .  A
C436        N437   1.438       .  S
N437        H441   1.046       .  S
N437        H442   1.046       .  S
N440        H443   1.046       .  S
N440        H444   1.046       .  S
C445        C446   1.405       .  A
C445        C450   1.402       .  A
C445        H452   1.083       .  S
C446        C447   1.413       .  A
C447        C448   1.399       .  A
C447        N454   1.433       .  S
C448        C449   1.402       .  A
C448        H453   1.084       .  S
C449        C450   1.410       .  A
C450        N451   1.432       .  S
N451        H455   1.046       .  S
N451        H456   1.046       .  S
N454        H457   1.046       .  S
N454        H458   1.046       .  S
C459        C460   1.406       .  A
C459        C464   1.398       .  A
C459        H466   1.084       .  S
C460        C461   1.418       .  A
C461        C462   1.397       .  A
C461        N468   1.432       .  S
C462        C463   1.406       .  A
C462        H467   1.083       .  S
C463        C464   1.419       .  A
C464        N465   1.433       .  S
N465        H469   1.045       .  S
N465        H470   1.044       .  S
N468        H471   1.044       .  S
N468        H472   1.045       .  S
C473        C474   1.409       .  A
C473        C478   1.404   1_455  A
C473        H480   1.083       .  S
C474        C475   1.419       .  A
C475        C476   1.406       .  A
C475        N482   1.438       .  S
C476        C477   1.405   1_455  A
C476        H481   1.083   1_455  S
C477        C478   1.412       .  A
C478        N479   1.432       .  S
N479        H483   1.046       .  S
N479        H484   1.046       .  S
N482        H485   1.046       .  S
N482        H486   1.046       .  S
C487        C488   1.404       .  A
C487        C492   1.401       .  A
C487        H494   1.084       .  S
C488        C489   1.415       .  A
C489        C490   1.408   1_565  A
C489        N496   1.438       .  S
C490        C491   1.406       .  A
C490        H495   1.083       .  S
C491        C492   1.412   1_545  A
C492        N493   1.433       .  S
N493        H497   1.046       .  S
N493        H498   1.046       .  S
N496        H499   1.046       .  S
N496        H500   1.046   1_565  S
C501        C502   1.404       .  A
C501        C506   1.402       .  A
C501        H508   1.084       .  S
C502        C503   1.413       .  A
C503        C504   1.402       .  A
C503        N510   1.433       .  S
C504        C505   1.403       .  A
C504        H509   1.084       .  S
C505        C506   1.410       .  A
C506        N507   1.433       .  S
N507        H511   1.046       .  S
N507        H512   1.046       .  S
N510        H513   1.046       .  S
N510        H514   1.046       .  S
C515        C516   1.406       .  A
C515        C520   1.404       .  A
C515        H522   1.083       .  S
C516        C517   1.414       .  A
C517        C518   1.401       .  A
C517        N524   1.433       .  S
C518        C519   1.402       .  A
C518        H523   1.084       .  S
C519        C520   1.410       .  A
C520        N521   1.432       .  S
N521        H525   1.046       .  S
N521        H526   1.046       .  S
N524        H527   1.046       .  S
N524        H528   1.046       .  S
C529        C530   1.406       .  A
C529        C534   1.397       .  A
C529        H536   1.084       .  S
C530        C531   1.418       .  A
C531        C532   1.400       .  A
C531        N538   1.432       .  S
C532        C533   1.406       .  A
C532        H537   1.084       .  S
C533        C534   1.418       .  A
C534        N535   1.433       .  S
N535        H539   1.044       .  S
N535        H540   1.045       .  S
N538        H541   1.045       .  S
N538        H542   1.044       .  S
C543        C544   1.407       .  A
C543        C548   1.398   1_455  A
C543        H550   1.083       .  S
C544        C545   1.419       .  A
C545        C546   1.400   1_455  A
C545        N552   1.432       .  S
C546        C547   1.404       .  A
C546        H551   1.084       .  S
C547        C548   1.416       .  A
C548        N549   1.433       .  S
N549        H553   1.045       .  S
N549        H554   1.046       .  S
N552        H555   1.046       .  S
N552        H556   1.044       .  S
C557        C558   1.404   1_565  A
C557        C562   1.405       .  A
C557        H564   1.083       .  S
C558        C559   1.415       .  A
C559        C560   1.403   1_545  A
C559        N566   1.432       .  S
C560        C561   1.405       .  A
C560        H565   1.083       .  S
C561        C562   1.419       .  A
C562        N563   1.438       .  S
N563        H567   1.046       .  S
N563        H568   1.046       .  S
N566        H569   1.046       .  S
N566        H570   1.046       .  S
C571        C572   1.403       .  A
C571        C576   1.406       .  A
C571        H578   1.084       .  S
C572        C573   1.409       .  A
C573        C574   1.397       .  A
C573        N580   1.433       .  S
C574        C575   1.404       .  A
C574        H579   1.084       .  S
C575        C576   1.415       .  A
C576        N577   1.438       .  S
N577        H581   1.046       .  S
N577        H582   1.046       .  S
N580        H583   1.046       .  S
N580        H584   1.046       .  S
C585        C586   1.402       .  A
C585        C590   1.395       .  A
C585        H592   1.082       .  S
C586        C587   1.416       .  A
C587        C588   1.407       .  A
C587        N594   1.438       .  S
C588        C589   1.406       .  A
C588        H593   1.083       .  S
C589        C590   1.413       .  A
C590        N591   1.433       .  S
N591        H595   1.046       .  S
N591        H596   1.046       .  S
N594        H597   1.046       .  S
N594        H598   1.046       .  S
C599        C600   1.406       .  A
C599        C604   1.394       .  A
C599        H606   1.084       .  S
C600        C601   1.421       .  A
C601        C602   1.400       .  A
C601        N608   1.432       .  S
C602        C603   1.405       .  A
C602        H607   1.084       .  S
C603        C604   1.418       .  A
C604        N605   1.433       .  S
N605        H609   1.045       .  S
N605        H610   1.046       .  S
N608        H611   1.045       .  S
N608        H612   1.045       .  S
C613        C614   1.402   1_455  A
C613        C618   1.396   1_554  A
C613        H620   1.084       .  S
C614        C615   1.418       .  A
C615        C616   1.397   1_654  A
C615        N622   1.432       .  S
C616        C617   1.404       .  A
C616        H621   1.084   1_455  S
C617        C618   1.419       .  A
C618        N619   1.433       .  S
N619        H623   1.046       .  S
N619        H624   1.044       .  S
N622        H625   1.044       .  S
N622        H626   1.045       .  S
C627        C628   1.408       .  A
C627        C632   1.406       .  A
C627        H634   1.083       .  S
C628        C629   1.415       .  A
C629        C630   1.400       .  A
C629        N636   1.431       .  S
C630        C631   1.403       .  A
C630        H635   1.084       .  S
C631        C632   1.415       .  A
C632        N633   1.438       .  S
N633        H637   1.046       .  S
N633        H638   1.046       .  S
N636        H639   1.046       .  S
N636        H640   1.046       .  S
C641        C642   1.402       .  A
C641        C646   1.402       .  A
C641        H648   1.083       .  S
C642        C643   1.415       .  A
C643        C644   1.408       .  A
C643        N650   1.438       .  S
C644        C645   1.406       .  A
C644        H649   1.083       .  S
C645        C646   1.417       .  A
C646        N647   1.439       .  S
N647        H651   1.046       .  S
N647        H652   1.046       .  S
N650        H653   1.046       .  S
N650        H654   1.046       .  S
C655        C656   1.409       .  A
C655        C660   1.403       .  A
C655        H662   1.083       .  S
C656        C657   1.417       .  A
C657        C658   1.405       .  A
C657        N664   1.438       .  S
C658        C659   1.407       .  A
C658        H663   1.083       .  S
C659        C660   1.414       .  A
C660        N661   1.439       .  S
N661        H665   1.046       .  S
N661        H666   1.046       .  S
N664        H667   1.046       .  S
N664        H668   1.046       .  S
C669        C670   1.407       .  A
C669        C674   1.407   1_554  A
C669        H676   1.083       .  S
C670        C671   1.420   1_545  A
C671        C672   1.398   1_554  A
C671        N678   1.433       .  S
C672        C673   1.403       .  A
C672        H677   1.084       .  S
C673        C674   1.414   1_565  A
C674        N675   1.438       .  S
N675        H679   1.046       .  S
N675        H680   1.046       .  S
N678        H681   1.044   1_565  S
N678        H682   1.046       .  S
C683        C684   1.405       .  A
C683        C688   1.406   1_455  A
C683        H690   1.083       .  S
C684        C685   1.413       .  A
C685        C686   1.402   1_455  A
C685        N692   1.433       .  S
C686        C687   1.403       .  A
C686        H691   1.084       .  S
C687        C688   1.414       .  A
C688        N689   1.438       .  S
N689        H693   1.046       .  S
N689        H694   1.046       .  S
N692        H695   1.046       .  S
N692        H696   1.046       .  S
C697        C698   1.404       .  A
C697        C702   1.401   1_565  A
C697        H704   1.084       .  S
C698        C699   1.418       .  A
C699        C700   1.396   1_565  A
C699        N706   1.433       .  S
C700        C701   1.405       .  A
C700        H705   1.084       .  S
C701        C702   1.414       .  A
C702        N703   1.433       .  S
N703        H707   1.046       .  S
N703        H708   1.046       .  S
N706        H709   1.044       .  S
N706        H710   1.046       .  S
C711        C712   1.406       .  A
C711        C716   1.403       .  A
C711        H718   1.083       .  S
C712        C713   1.416       .  A
C713        C714   1.400       .  A
C713        N720   1.433       .  S
C714        C715   1.404       .  A
C714        H719   1.084       .  S
C715        C716   1.414       .  A
C716        N717   1.432       .  S
N717        H721   1.046       .  S
N717        H722   1.046       .  S
N720        H723   1.046       .  S
N720        H724   1.046       .  S
C725        C726   1.407       .  A
C725        C730   1.404       .  A
C725        H732   1.083       .  S
C726        C727   1.413       .  A
C727        C728   1.401       .  A
C727        N734   1.432       .  S
C728        C729   1.405       .  A
C728        H733   1.084       .  S
C729        C730   1.412       .  A
C730        N731   1.432       .  S
N731        H735   1.046       .  S
N731        H736   1.046       .  S
N734        H737   1.046       .  S
N734        H738   1.046       .  S
C739        C740   1.407       .  A
C739        C744   1.402       .  A
C739        H746   1.082       .  S
C740        C741   1.416       .  A
C741        C742   1.406       .  A
C741        N748   1.438       .  S
C742        C743   1.406       .  A
C742        H747   1.083       .  S
C743        C744   1.415       .  A
C744        N745   1.439       .  S
N745        H749   1.046       .  S
N745        H750   1.046       .  S
N748        H751   1.046       .  S
N748        H752   1.045       .  S
C753        C754   1.406       .  A
C753        C758   1.402       .  A
C753        H760   1.083       .  S
C754        C755   1.413       .  A
C755        C756   1.403       .  A
C755        N762   1.432       .  S
C756        C757   1.407       .  A
C756        H761   1.083       .  S
C757        C758   1.415       .  A
C758        N759   1.433       .  S
N759        H763   1.046       .  S
N759        H764   1.046       .  S
N762        H765   1.046       .  S
N762        H766   1.046       .  S
C767        C768   1.406       .  A
C767        C772   1.405       .  A
C767        H774   1.083       .  S
C768        C769   1.413       .  A
C769        C770   1.402       .  A
C769        N776   1.439       .  S
C770        C771   1.408       .  A
C770        H775   1.083       .  S
C771        C772   1.415       .  A
C772        N773   1.437       .  S
N773        H777   1.046       .  S
N773        H778   1.046       .  S
N776        H779   1.046       .  S
N776        H780   1.046       .  S
C781        C782   1.406       .  A
C781        C786   1.402       .  A
C781        H788   1.084       .  S
C782        C783   1.420       .  A
C783        C784   1.400       .  A
C783        N790   1.433       .  S
C784        C785   1.403       .  A
C784        H789   1.084       .  S
C785        C786   1.409       .  A
C786        N787   1.433       .  S
N787        H791   1.046       .  S
N787        H792   1.046       .  S
N790        H793   1.046       .  S
N790        H794   1.045       .  S
C795        C796   1.403       .  A
C795        C800   1.396       .  A
C795        H802   1.084       .  S
C796        C797   1.415       .  A
C797        C798   1.397       .  A
C797        N804   1.433       .  S
C798        C799   1.409       .  A
C798        H803   1.084       .  S
C799        C800   1.420       .  A
C800        N801   1.432       .  S
N801        H805   1.044       .  S
N801        H806   1.045       .  S
N804        H807   1.045       .  S
N804        H808   1.045       .  S
C809        C810   1.408       .  A
C809        C814   1.398       .  A
C809        H816   1.084       .  S
C810        C811   1.418       .  A
C811        C812   1.397       .  A
C811        N818   1.432       .  S
C812        C813   1.403       .  A
C812        H817   1.084       .  S
C813        C814   1.414       .  A
C814        N815   1.433       .  S
N815        H819   1.044       .  S
N815        H820   1.046       .  S
N818        H821   1.045       .  S
N818        H822   1.045       .  S
C823        C824   1.405       .  A
C823        C828   1.397       .  A
C823        H830   1.084       .  S
C824        C825   1.410       .  A
C825        C826   1.403       .  A
C825        N832   1.432       .  S
C826        C827   1.404       .  A
C826        H831   1.084       .  S
C827        C828   1.415       .  A
C828        N829   1.433       .  S
N829        H833   1.044       .  S
N829        H834   1.046       .  S
N832        H835   1.045       .  S
N832        H836   1.046       .  S
C837        C838   1.407       .  A
C837        C842   1.400       .  A
C837        H844   1.084       .  S
C838        C839   1.416       .  A
C839        C840   1.407       .  A
C839        N846   1.438       .  S
C840        C841   1.404       .  A
C840        H845   1.084       .  S
C841        C842   1.409       .  A
C842        N843   1.433       .  S
N843        H847   1.046       .  S
N843        H848   1.046       .  S
N846        H849   1.046       .  S
N846        H850   1.046       .  S
C851        C852   1.404       .  A
C851        C856   1.406       .  A
C851        H858   1.084       .  S
C852        C853   1.413       .  A
C853        C854   1.405   1_556  A
C853        N860   1.438       .  S
C854        C855   1.404       .  A
C854        H859   1.084       .  S
C855        C856   1.414   1_554  A
C856        N857   1.438   1_556  S
N857        H861   1.046   1_554  S
N857        H862   1.046       .  S
N860        H863   1.046       .  S
N860        H864   1.046   1_556  S
