geometry optimzed in LAMMPS
_audit_creation_date              2020-11-30 
_audit_creation_method            'lammps2cif' 
_symmetry_space_group_name_H-M    'P1' 
_symmetry_Int_Tables_number       1 
_symmetry_cell_setting            triclinic 
loop_ 
_symmetry_equiv_pos_as_xyz 
  x,y,z 
_cell_length_a                    28.81299085 
_cell_length_b                    28.798090429117202 
_cell_length_c                    46.63882956436173 
_cell_angle_alpha                 90.07782413116524 
_cell_angle_beta                  90.09224836329702 
_cell_angle_gamma                 79.2764949657393 
loop_ 
_atom_site_label 
_atom_site_type_symbol 
_atom_site_fract_x 
_atom_site_fract_y 
_atom_site_fract_z 
_atom_site_charge 
O1          O  0.18956655  0.16819638  0.63494067    -0.74600
C2          C  0.34166132  0.15598792  0.62447913     0.86400
O3          O  0.24252652  0.29682463  0.68823531    -0.75800
O4          O  0.33407834  0.30578925  0.60237559    -0.77200
O5          O  0.20372597  0.26846982  0.55184634    -0.77000
O6          O  0.14888504  0.21072537  0.60005032    -0.75700
Zn7        Zn  0.24308323  0.20221484  0.64485077     1.55700
O8          O  0.28254882  0.25034134  0.55283552    -0.77100
Cd9        Cd  0.18436736  0.26646760  0.59480639     1.59700
Cd10       Cd  0.23802561  0.31501882  0.64531430     1.59600
O11         O  0.13775330  0.32831581  0.60506213    -0.77100
O12         O  0.24104223  0.25768854  0.62056116    -1.87600
Cd13       Cd  0.29904348  0.25014415  0.59617491     1.59900
O14         O  0.17450555  0.36087441  0.63986860    -0.77000
O15         O  0.34509769  0.18848460  0.60657113    -0.75700
C16         C  0.24078172  0.25792474  0.70071682     0.86900
C17         C  0.15565945  0.17539463  0.61695031     0.86500
O18         O  0.30509270  0.15672672  0.63988424    -0.74600
C19         C  0.24361786  0.26002863  0.53919058     0.87300
O20         O  0.23897987  0.22015242  0.68688710    -0.74700
C21         C  0.13933304  0.36091906  0.62334322     0.87500
C22         C  0.32641162  0.34241340  0.61821815     0.87800
O23         O  0.29175086  0.35110308  0.63552764    -0.77100
C24         C  0.02727678  0.47186383  0.62837859     0.33900
C25         C  0.45385307  0.04518988  0.62920453     0.33900
C26         C  0.48256586  0.46272249  0.61325488    -0.02300
C27         C  0.00951827  0.48858832  0.65826144    -0.03100
C28         C  0.03675512  0.01712273  0.61414069    -0.03000
C29         C  0.44428146  0.50094169  0.61369221    -0.02400
C30         C  0.47168032  0.02638487  0.65867933    -0.03100
C31         C  0.99855523  0.05530997  0.61456971    -0.03000
C32         C  0.40375215  0.48179809  0.61309390    -0.28400
N33         N  0.41600432  0.43429388  0.61145857     0.18100
C34         C  0.46353832  0.42213239  0.61241509    -0.28400
H35         H  0.48269621  0.38647010  0.61575122     0.20000
C36         C  0.46063864  0.03674059  0.68694743    -0.27400
N37         N  0.99084199  0.00613388  0.70343515     0.16800
C38         C  0.02087534  0.47654320  0.68629443    -0.27400
C39         C  0.01759230  0.09593274  0.61403952    -0.27700
N40         N  0.06512723  0.08374073  0.61237466     0.17300
H41         H  0.99854859  0.13154691  0.61771129     0.20000
C42         C  0.07734579  0.03614577  0.61334112    -0.27700
H43         H  0.11305260  0.01695475  0.61637924     0.20000
H44         H  0.04884340  0.44867446  0.69369636     0.20000
H45         H  0.36821186  0.50072669  0.61704790     0.20000
H46         H  0.43302680  0.06442178  0.69494954     0.20000
O47         O  0.05793736  0.40592891  0.85102464    -0.74600
C48         C  0.40843842  0.42455120  0.87370996     0.86400
O49         O  0.99473557  0.04588314  0.80262299    -0.75800
O50         O  0.39029536  0.07762165  0.88523209    -0.77200
O51         O  0.03469259  0.99998336  0.93816544    -0.77000
O52         O  0.09745167  0.43750307  0.88481372    -0.75700
Zn53       Zn  0.99584016  0.45129722  0.84595852     1.55700
O54         O  0.45587349  0.01825963  0.93877641    -0.77100
Cd55       Cd  0.05152606  0.99938190  0.89490832     1.59700
Cd56       Cd  0.99088500  0.06412705  0.84553563     1.59600
O57         O  0.08683878  0.05482597  0.88873258    -0.77100
O58         O  0.99372344  0.00688383  0.87025107    -1.87600
Cd59       Cd  0.43687906  0.01590379  0.89574451     1.59900
O60         O  0.04491069  0.09988915  0.85530487    -0.77000
O61         O  0.40148224  0.46011268  0.89046948    -0.75700
C62         C  0.99266339  0.50702238  0.79012371     0.86900
C63         C  0.09425082  0.40507865  0.86674939     0.86500
O64         O  0.44247036  0.41716507  0.85586592    -0.74600
C65         C  0.99565326  0.00983213  0.95162015     0.87300
O66         O  0.99116843  0.46921506  0.80392958    -0.74700
C67         C  0.07945614  0.09124909  0.87275433     0.87500
C68         C  0.39215394  0.11028574  0.86709973     0.87800
O69         O  0.42757925  0.11029638  0.85087035    -0.77100
C70         C  0.28001868  0.22111209  0.86213078     0.33900
C71         C  0.20648603  0.29432339  0.86199874     0.33900
C72         C  0.28967927  0.26621595  0.87656886    -0.02300
C73         C  0.26168406  0.23819064  0.83239764    -0.03100
C74         C  0.23562736  0.21169683  0.87739814    -0.03000
C75         C  0.25142780  0.30436894  0.87648766    -0.02400
C76         C  0.22378460  0.27592803  0.83236673    -0.03100
C77         C  0.19727708  0.24984663  0.87731820    -0.03000
C78         C  0.27044094  0.34501588  0.87704726    -0.28400
N79         N  0.31801225  0.33285757  0.87841710     0.18100
C80         C  0.33025138  0.28528210  0.87722657    -0.28400
H81         H  0.36590380  0.26615564  0.87391828     0.20000
C82         C  0.21202813  0.28660047  0.80423199    -0.27400
N83         N  0.24185899  0.25625127  0.78741342     0.16800
C84         C  0.27236957  0.22649866  0.80422741    -0.27400
C85         C  0.15681970  0.23059044  0.87801896    -0.27700
N86         N  0.16920598  0.18307255  0.87939118     0.17300
H87         H  0.12117216  0.24948985  0.87433381     0.20000
C88         C  0.21672486  0.17103192  0.87815124    -0.27700
H89         H  0.23589498  0.13543268  0.87458364     0.20000
H90         H  0.30013889  0.19870977  0.79651702     0.20000
H91         H  0.25129581  0.38064375  0.87358118     0.20000
H92         H  0.18411913  0.31427528  0.79653985     0.20000
O93         O  0.05277128  0.10775093  0.13515445    -0.74600
C94         C  0.40078056  0.12008044  0.12426550     0.86400
O95         O  0.49975201  0.47920042  0.18816788    -0.75800
O96         O  0.40814218  0.47031941  0.10204831    -0.77200
O97         O  0.03889933  0.00726041  0.05199756    -0.77000
O98         O  0.09356476  0.06499113  0.10040558    -0.75700
Zn99       Zn  0.49922925  0.07375816  0.14490859     1.55700
O100        O  0.46007873  0.02551575  0.05270302    -0.77100
Cd101      Cd  0.05804318  0.00931409  0.09501420     1.59700
Cd102      Cd  0.50417312  0.46094402  0.14524015     1.59600
O103        O  0.10456852  0.44748449  0.10532890    -0.77100
O104        O  0.50126675  0.01824332  0.12056667    -1.87600
Cd105      Cd  0.44336805  0.02584738  0.09597594     1.59900
O106        O  0.06761442  0.41491508  0.13990046    -0.77000
O107        O  0.39740685  0.08763080  0.10625126    -0.75700
C108        C  0.50155139  0.01810289  0.20069940     0.86900
C109        C  0.08674533  0.10042270  0.11726785     0.86500
O110        O  0.43725095  0.11925632  0.13984142    -0.74600
C111        C  0.49908054  0.01575265  0.03920079     0.87300
O112        O  0.50333874  0.05586510  0.18692311    -0.74700
C113        C  0.10287231  0.41486271  0.12351446     0.87500
C114        C  0.41567610  0.43376195  0.11790987     0.87800
O115        O  0.45030042  0.42505401  0.13530056    -0.77100
C116        C  0.21502857  0.30403181  0.12843079     0.33900
C117        C  0.28856699  0.23083204  0.12904208     0.33900
C118        C  0.25955327  0.31327563  0.11324110    -0.02300
C119        C  0.23309264  0.28730884  0.15826400    -0.03100
C120        C  0.20549482  0.25875538  0.11414855    -0.03000
C121        C  0.29789811  0.27512691  0.11356750    -0.02400
C122        C  0.27099331  0.24957725  0.15857023    -0.03100
C123        C  0.24375711  0.22061521  0.11447237    -0.03000
C124        C  0.33836684  0.29436058  0.11286349    -0.28400
N125        N  0.32600252  0.34185914  0.11125956     0.18100
C126        C  0.27847134  0.35392508  0.11235206    -0.28400
H127        H  0.25928107  0.38956873  0.11573114     0.20000
C128        C  0.28225965  0.23914441  0.18680757    -0.27400
N129        N  0.25212816  0.26964647  0.20338767     0.16800
C130        C  0.22191863  0.29923947  0.18633332    -0.27400
C131        C  0.22476804  0.17995205  0.11403167    -0.27700
N132        N  0.17720885  0.19207131  0.11251220     0.17300
H133        H  0.24389924  0.14437247  0.11768396     0.20000
C134        C  0.16493946  0.23965924  0.11348186    -0.27700
H135        H  0.12925596  0.25880927  0.11663717     0.20000
H136        H  0.19393753  0.32701619  0.19381773     0.20000
H137        H  0.37398141  0.27550195  0.11670723     0.20000
H138        H  0.30995676  0.21146345  0.19472615     0.20000
C139        C  0.46343886  0.05462442  0.36219724     0.33900
C140        C  0.03695056  0.48137499  0.36187320     0.33900
C141        C  0.45388899  0.00950992  0.37658046    -0.02300
C142        C  0.48152310  0.03757278  0.33242151    -0.03100
C143        C  0.00797341  0.06400596  0.37742199    -0.03000
C144        C  0.49212501  0.47135505  0.37640585    -0.02400
C145        C  0.01940756  0.99981738  0.33228808    -0.03100
C146        C  0.04631080  0.02582777  0.37724516    -0.03000
C147        C  0.47312572  0.43071129  0.37704631    -0.28400
N148        N  0.42556984  0.44287994  0.37854405     0.18100
C149        C  0.41331810  0.49045677  0.37735553    -0.28400
H150        H  0.37762609  0.00957992  0.37415260     0.20000
C151        C  0.03095760  0.48922510  0.30412247    -0.27400
N152        N  0.50101737  0.01963730  0.28739035     0.16800
C153        C  0.47064334  0.04935596  0.30428611    -0.27400
C154        C  0.08679037  0.04505338  0.37786057    -0.27700
N155        N  0.07445235  0.09257169  0.37925761     0.17300
H156        H  0.12238487  0.02612717  0.37407467     0.20000
C157        C  0.02692509  0.10464775  0.37813324    -0.27700
H158        H  0.00774807  0.14024585  0.37459349     0.20000
H159        H  0.44284315  0.07719155  0.29665381     0.20000
H160        H  0.49223340  0.39506672  0.37356660     0.20000
H161        H  0.05880918  0.46157165  0.29635112     0.20000
O162        O  0.18560684  0.36979896  0.35097897    -0.74600
C163        C  0.33509292  0.35116333  0.37398888     0.86400
O164        O  0.24869276  0.22976161  0.30253059    -0.75800
O165        O  0.35311721  0.19813863  0.38545175    -0.77200
O166        O  0.20855456  0.27580932  0.43803189    -0.77000
O167        O  0.14593831  0.33814915  0.38452307    -0.75700
Zn168      Zn  0.24770399  0.32437872  0.34599659     1.55700
O169        O  0.28737202  0.25759385  0.43889979    -0.77100
Cd170      Cd  0.19189191  0.27634090  0.39471301     1.59700
Cd171      Cd  0.25261752  0.21157178  0.34543562     1.59600
O172        O  0.15667019  0.22085410  0.38841711    -0.77100
O173        O  0.24977015  0.26883555  0.37023380    -1.87600
Cd174      Cd  0.30653203  0.25990576  0.39591677     1.59900
O175        O  0.19867869  0.17569935  0.35507241    -0.77000
O176        O  0.34197802  0.31569490  0.39078073    -0.75700
C177        C  0.25077740  0.26860583  0.29008351     0.86900
C178        C  0.14921060  0.37060704  0.36655640     0.86500
O179        O  0.30111177  0.35846522  0.35605236    -0.74600
C180        C  0.24753235  0.26599097  0.45161625     0.87300
O181        O  0.25234411  0.30640947  0.30394451    -0.74700
C182        C  0.16411931  0.18436498  0.37245573     0.87500
C183        C  0.35133197  0.16549701  0.36722918     0.87800
O184        O  0.31597552  0.16550637  0.35086626    -0.77100
C185        C  0.10571103  0.12419790  0.37660402    -0.09400
C186        C  0.13245177  0.15156276  0.37439529    -0.11000
C187        C  0.11029372  0.40939066  0.36375292    -0.09400
C188        C  0.07713517  0.44167941  0.36220106    -0.11000
C189        C  0.42348464  0.09450347  0.36302932    -0.09400
C190        C  0.39070641  0.12711101  0.36490172    -0.11000
C191        C  0.39398828  0.41131660  0.37677121    -0.09400
C192        C  0.36690982  0.38406041  0.37536255    -0.11000
C193        C  0.25173221  0.26992450  0.23344958    -0.09400
C194        C  0.25132734  0.26972833  0.25931153    -0.11000
C195        C  0.50116174  0.01981030  0.25733076    -0.09400
C196        C  0.50139284  0.01939891  0.23147040    -0.11000
C197        C  0.11858052  0.13329028  0.11597137    -0.09400
C198        C  0.14565389  0.16052447  0.11446779    -0.11000
C199        C  0.17504955  0.34387024  0.12752566    -0.09400
C200        C  0.14223587  0.37645332  0.12574416    -0.11000
C201        C  0.36189012  0.15885701  0.12715849    -0.09400
C202        C  0.32875601  0.19115100  0.12879041    -0.11000
C203        C  0.38399711  0.40095148  0.11589448    -0.09400
C204        C  0.35725648  0.37354775  0.11376081    -0.11000
C205        C  0.49668247  0.01187869  0.98247055    -0.09400
C206        C  0.49796889  0.01383751  0.00834858    -0.11000
C207        C  0.13794612  0.15139721  0.87685435    -0.09400
C208        C  0.11119503  0.12400512  0.87471989    -0.11000
C209        C  0.35278724  0.14866620  0.86472967    -0.09400
C210        C  0.31999001  0.18125406  0.86287303    -0.11000
C211        C  0.13315791  0.36629171  0.86398995    -0.09400
C212        C  0.16630007  0.33399920  0.86241951    -0.11000
C213        C  0.37665471  0.39163675  0.87504422    -0.09400
C214        C  0.34957739  0.36440285  0.87652040    -0.11000
C215        C  0.99200485  0.50589832  0.75935380    -0.09400
C216        C  0.99144650  0.50575312  0.73349375    -0.11000
C217        C  0.24635012  0.26392470  0.48246633    -0.09400
C218        C  0.24490614  0.26194064  0.50833865    -0.11000
C219        C  0.24107383  0.25662639  0.73148995    -0.09400
C220        C  0.24148782  0.25616316  0.75735142    -0.11000
C221        C  0.38057940  0.11723923  0.62742977    -0.09400
C222        C  0.41371385  0.08493537  0.62905184    -0.11000
C223        C  0.09994413  0.39931717  0.62553329    -0.09400
C224        C  0.06718206  0.43194930  0.62735871    -0.11000
C225        C  0.35797827  0.37531315  0.61625130    -0.09400
C226        C  0.38471101  0.40269123  0.61406324    -0.11000
C227        C  0.12382699  0.14251109  0.61561581    -0.09400
C228        C  0.09674439  0.11526193  0.61419051    -0.11000
O229        O  0.18956663  0.66819645  0.63494063    -0.74600
C230        C  0.34166135  0.65598798  0.62447913     0.86400
O231        O  0.24252637  0.79682469  0.68823530    -0.75800
O232        O  0.33407844  0.80578931  0.60237561    -0.77200
O233        O  0.20372589  0.76846985  0.55184635    -0.77000
O234        O  0.14888496  0.71072546  0.60005035    -0.75700
Zn235      Zn  0.24308330  0.70221492  0.64485077     1.55700
O236        O  0.28254875  0.75034144  0.55283550    -0.77100
Cd237      Cd  0.18436745  0.76646764  0.59480640     1.59700
Cd238      Cd  0.23802545  0.81501887  0.64531430     1.59600
O239        O  0.13775339  0.82831582  0.60506206    -0.77100
O240        O  0.24104233  0.75768859  0.62056115    -1.87600
Cd241      Cd  0.29904359  0.75014422  0.59617490     1.59900
O242        O  0.17450542  0.86087430  0.63986866    -0.77000
O243        O  0.34509777  0.68848467  0.60657116    -0.75700
C244        C  0.24078162  0.75792479  0.70071682     0.86900
C245        C  0.15565946  0.67539467  0.61695030     0.86500
O246        O  0.30509270  0.65672675  0.63988421    -0.74600
C247        C  0.24361775  0.76002868  0.53919058     0.87300
O248        O  0.23897976  0.72015248  0.68688711    -0.74700
C249        C  0.13933301  0.86091899  0.62334321     0.87500
C250        C  0.32641163  0.84241346  0.61821817     0.87800
O251        O  0.29175077  0.85110315  0.63552760    -0.77100
C252        C  0.02727685  0.97186382  0.62837860     0.33900
C253        C  0.45385307  0.54518992  0.62920454     0.33900
C254        C  0.48256588  0.96272246  0.61325488    -0.02300
C255        C  0.00951826  0.98858830  0.65826145    -0.03100
C256        C  0.03675506  0.51712273  0.61414068    -0.03000
C257        C  0.44428147  0.00094166  0.61369221    -0.02400
C258        C  0.47168031  0.52638492  0.65867935    -0.03100
C259        C  0.99855515  0.55530997  0.61456971    -0.03000
C260        C  0.40375209  0.98179813  0.61309389    -0.28400
N261        N  0.41600432  0.93429391  0.61145857     0.18100
C262        C  0.46353829  0.92213240  0.61241510    -0.28400
H263        H  0.48269619  0.88647001  0.61575124     0.20000
C264        C  0.46063861  0.53674059  0.68694745    -0.27400
N265        N  0.99084210  0.50613389  0.70343515     0.16800
C266        C  0.02087521  0.97654320  0.68629444    -0.27400
C267        C  0.01759225  0.59593270  0.61403953    -0.27700
N268        N  0.06512716  0.58374076  0.61237466     0.17300
H269        H  0.99854843  0.63154706  0.61771131     0.20000
C270        C  0.07734575  0.53614579  0.61334113    -0.27700
H271        H  0.11305260  0.51695478  0.61637925     0.20000
H272        H  0.04884347  0.94867441  0.69369642     0.20000
H273        H  0.36821194  0.00072665  0.61704788     0.20000
H274        H  0.43302675  0.56442168  0.69494957     0.20000
O275        O  0.05793731  0.90592895  0.85102468    -0.74600
C276        C  0.40843851  0.92455112  0.87370998     0.86400
O277        O  0.99473540  0.54588304  0.80262299    -0.75800
O278        O  0.39029521  0.57762172  0.88523209    -0.77200
O279        O  0.03469246  0.49998335  0.93816542    -0.77000
O280        O  0.09745177  0.93750311  0.88481368    -0.75700
Zn281      Zn  0.99584019  0.95129728  0.84595851     1.55700
O282        O  0.45587361  0.51825943  0.93877638    -0.77100
Cd283      Cd  0.05152592  0.49938183  0.89490833     1.59700
Cd284      Cd  0.99088510  0.56412685  0.84553563     1.59600
O285        O  0.08683863  0.55482588  0.88873265    -0.77100
O286        O  0.99372336  0.50688377  0.87025107    -1.87600
Cd287      Cd  0.43687893  0.51590384  0.89574450     1.59900
O288        O  0.04491080  0.59988892  0.85530480    -0.77000
O289        O  0.40148218  0.96011266  0.89046946    -0.75700
C290        C  0.99266350  0.00702246  0.79012372     0.86900
C291        C  0.09425084  0.90507866  0.86674938     0.86500
O292        O  0.44247049  0.91716509  0.85586595    -0.74600
C293        C  0.99565317  0.50983208  0.95162016     0.87300
O294        O  0.99116831  0.96921520  0.80392959    -0.74700
C295        C  0.07945615  0.59124892  0.87275433     0.87500
C296        C  0.39215388  0.61028580  0.86709974     0.87800
O297        O  0.42757919  0.61029635  0.85087034    -0.77100
C298        C  0.28001874  0.72111209  0.86213078     0.33900
C299        C  0.20648606  0.79432337  0.86199875     0.33900
C300        C  0.28967933  0.76621596  0.87656887    -0.02300
C301        C  0.26168415  0.73819069  0.83239763    -0.03100
C302        C  0.23562737  0.71169682  0.87739814    -0.03000
C303        C  0.25142783  0.80436892  0.87648767    -0.02400
C304        C  0.22378471  0.77592807  0.83236673    -0.03100
C305        C  0.19727712  0.74984660  0.87731817    -0.03000
C306        C  0.27044089  0.84501592  0.87704727    -0.28400
N307        N  0.31801219  0.83285764  0.87841710     0.18100
C308        C  0.33025140  0.78528219  0.87722657    -0.28400
H309        H  0.36590381  0.76615582  0.87391829     0.20000
C310        C  0.21202815  0.78660055  0.80423200    -0.27400
N311        N  0.24185897  0.75625129  0.78741343     0.16800
C312        C  0.27236964  0.72649872  0.80422739    -0.27400
C313        C  0.15681959  0.73059052  0.87801894    -0.27700
N314        N  0.16920591  0.68307256  0.87939118     0.17300
H315        H  0.12117248  0.74948977  0.87433384     0.20000
C316        C  0.21672479  0.67103192  0.87815124    -0.27700
H317        H  0.23589486  0.63543272  0.87458366     0.20000
H318        H  0.30013892  0.69870990  0.79651699     0.20000
H319        H  0.25129570  0.88064376  0.87358119     0.20000
H320        H  0.18411925  0.81427525  0.79653992     0.20000
O321        O  0.05277141  0.60775067  0.13515448    -0.74600
C322        C  0.40078058  0.62008052  0.12426549     0.86400
O323        O  0.49975180  0.97920045  0.18816787    -0.75800
O324        O  0.40814216  0.97031943  0.10204829    -0.77200
O325        O  0.03889932  0.50726050  0.05199758    -0.77000
O326        O  0.09356485  0.56499107  0.10040554    -0.75700
Zn327      Zn  0.49922911  0.57375797  0.14490859     1.55700
O328        O  0.46007880  0.52551581  0.05270301    -0.77100
Cd329      Cd  0.05804306  0.50931414  0.09501420     1.59700
Cd330      Cd  0.50417316  0.96094408  0.14524015     1.59600
O331        O  0.10456864  0.94748448  0.10532891    -0.77100
O332        O  0.50126669  0.51824327  0.12056666    -1.87600
Cd333      Cd  0.44336808  0.52584744  0.09597594     1.59900
O334        O  0.06761442  0.91491516  0.13990045    -0.77000
O335        O  0.39740678  0.58763085  0.10625129    -0.75700
C336        C  0.50155146  0.51810290  0.20069940     0.86900
C337        C  0.08674542  0.60042257  0.11726785     0.86500
O338        O  0.43725101  0.61925634  0.13984138    -0.74600
C339        C  0.49908060  0.51575263  0.03920079     0.87300
O340        O  0.50333855  0.55586514  0.18692310    -0.74700
C341        C  0.10287234  0.91486271  0.12351445     0.87500
C342        C  0.41567603  0.93376202  0.11790988     0.87800
O343        O  0.45030032  0.92505410  0.13530059    -0.77100
C344        C  0.21502855  0.80403179  0.12843078     0.33900
C345        C  0.28856693  0.73083202  0.12904209     0.33900
C346        C  0.25955325  0.81327563  0.11324111    -0.02300
C347        C  0.23309250  0.78730880  0.15826400    -0.03100
C348        C  0.20549483  0.75875532  0.11414852    -0.03000
C349        C  0.29789807  0.77512689  0.11356751    -0.02400
C350        C  0.27099319  0.74957722  0.15857023    -0.03100
C351        C  0.24375712  0.72061516  0.11447237    -0.03000
C352        C  0.33836676  0.79436057  0.11286349    -0.28400
N353        N  0.32600252  0.84185914  0.11125955     0.18100
C354        C  0.27847138  0.85392498  0.11235206    -0.28400
H355        H  0.25928092  0.88956904  0.11573116     0.20000
C356        C  0.28225956  0.73914446  0.18680754    -0.27400
N357        N  0.25212816  0.76964651  0.20338767     0.16800
C358        C  0.22191850  0.79923934  0.18633333    -0.27400
C359        C  0.22476818  0.67995189  0.11403167    -0.27700
N360        N  0.17720896  0.69207116  0.11251221     0.17300
H361        H  0.24389926  0.64437261  0.11768393     0.20000
C362        C  0.16493952  0.73965910  0.11348186    -0.27700
H363        H  0.12925606  0.75880906  0.11663716     0.20000
H364        H  0.19393718  0.82701617  0.19381780     0.20000
H365        H  0.37398156  0.77550179  0.11670725     0.20000
H366        H  0.30995686  0.71146339  0.19472614     0.20000
C367        C  0.46343889  0.55462443  0.36219723     0.33900
C368        C  0.03695053  0.98137502  0.36187319     0.33900
C369        C  0.45388899  0.50950995  0.37658047    -0.02300
C370        C  0.48152308  0.53757276  0.33242150    -0.03100
C371        C  0.00797337  0.56400590  0.37742199    -0.03000
C372        C  0.49212506  0.97135505  0.37640585    -0.02400
C373        C  0.01940760  0.49981735  0.33228809    -0.03100
C374        C  0.04631083  0.52582775  0.37724515    -0.03000
C375        C  0.47312583  0.93071125  0.37704631    -0.28400
N376        N  0.42556991  0.94287989  0.37854405     0.18100
C377        C  0.41331820  0.99045666  0.37735554    -0.28400
H378        H  0.37762635  0.50957991  0.37415263     0.20000
C379        C  0.03095757  0.98922515  0.30412247    -0.27400
N380        N  0.50101737  0.51963721  0.28739035     0.16800
C381        C  0.47064329  0.54935588  0.30428609    -0.27400
C382        C  0.08679042  0.54505338  0.37786057    -0.27700
N383        N  0.07445221  0.59257172  0.37925761     0.17300
H384        H  0.12238472  0.52612744  0.37407468     0.20000
C385        C  0.02692499  0.60464766  0.37813325    -0.27700
H386        H  0.00774775  0.64024594  0.37459348     0.20000
H387        H  0.44284318  0.57719141  0.29665378     0.20000
H388        H  0.49223352  0.89506682  0.37356660     0.20000
H389        H  0.05880908  0.96157159  0.29635112     0.20000
O390        O  0.18560684  0.86979886  0.35097897    -0.74600
C391        C  0.33509290  0.85116339  0.37398888     0.86400
O392        O  0.24869287  0.72976164  0.30253062    -0.75800
O393        O  0.35311722  0.69813866  0.38545176    -0.77200
O394        O  0.20855455  0.77580935  0.43803191    -0.77000
O395        O  0.14593834  0.83814905  0.38452306    -0.75700
Zn396      Zn  0.24770410  0.82437877  0.34599659     1.55700
O397        O  0.28737200  0.75759394  0.43889979    -0.77100
Cd398      Cd  0.19189199  0.77634091  0.39471301     1.59700
Cd399      Cd  0.25261761  0.71157181  0.34543563     1.59600
O400        O  0.15667007  0.72085411  0.38841704    -0.77100
O401        O  0.24977020  0.76883561  0.37023378    -1.87600
Cd402      Cd  0.30653190  0.75990581  0.39591677     1.59900
O403        O  0.19867875  0.67569922  0.35507247    -0.77000
O404        O  0.34197789  0.81569498  0.39078075    -0.75700
C405        C  0.25077754  0.76860583  0.29008351     0.86900
C406        C  0.14921058  0.87060694  0.36655639     0.86500
O407        O  0.30111182  0.85846530  0.35605232    -0.74600
C408        C  0.24753236  0.76599104  0.45161626     0.87300
O409        O  0.25234424  0.80640951  0.30394448    -0.74700
C410        C  0.16411925  0.68436492  0.37245571     0.87500
C411        C  0.35133200  0.66549699  0.36722921     0.87800
O412        O  0.31597559  0.66550637  0.35086626    -0.77100
C413        C  0.10571086  0.62419794  0.37660402    -0.09400
C414        C  0.13245167  0.65156271  0.37439528    -0.11000
C415        C  0.11029364  0.90939059  0.36375292    -0.09400
C416        C  0.07713509  0.94167937  0.36220106    -0.11000
C417        C  0.42348473  0.59450353  0.36302932    -0.09400
C418        C  0.39070647  0.62711104  0.36490173    -0.11000
C419        C  0.39398835  0.91131658  0.37677122    -0.09400
C420        C  0.36690979  0.88406047  0.37536257    -0.11000
C421        C  0.25173233  0.76992450  0.23344958    -0.09400
C422        C  0.25132751  0.76972823  0.25931153    -0.11000
C423        C  0.50116186  0.51981031  0.25733076    -0.09400
C424        C  0.50139298  0.51939896  0.23147041    -0.11000
C425        C  0.11858051  0.63329025  0.11597138    -0.09400
C426        C  0.14565400  0.66052433  0.11446779    -0.11000
C427        C  0.17504958  0.84387026  0.12752565    -0.09400
C428        C  0.14223586  0.87645329  0.12574415    -0.11000
C429        C  0.36189017  0.65885711  0.12715850    -0.09400
C430        C  0.32875596  0.69115100  0.12879042    -0.11000
C431        C  0.38399705  0.90095155  0.11589446    -0.09400
C432        C  0.35725644  0.87354778  0.11376080    -0.11000
C433        C  0.49668245  0.51187866  0.98247055    -0.09400
C434        C  0.49796892  0.51383736  0.00834858    -0.11000
C435        C  0.13794604  0.65139720  0.87685435    -0.09400
C436        C  0.11119508  0.62400494  0.87471989    -0.11000
C437        C  0.35278727  0.64866627  0.86472968    -0.09400
C438        C  0.31999000  0.68125406  0.86287303    -0.11000
C439        C  0.13315787  0.86629164  0.86398994    -0.09400
C440        C  0.16630007  0.83399914  0.86241952    -0.11000
C441        C  0.37665490  0.89163656  0.87504421    -0.09400
C442        C  0.34957739  0.86440285  0.87652040    -0.11000
C443        C  0.99200508  0.00589838  0.75935381    -0.09400
C444        C  0.99144661  0.00575327  0.73349376    -0.11000
C445        C  0.24635015  0.76392477  0.48246634    -0.09400
C446        C  0.24490601  0.76194069  0.50833864    -0.11000
C447        C  0.24107374  0.75662646  0.73148995    -0.09400
C448        C  0.24148779  0.75616323  0.75735142    -0.11000
C449        C  0.38057945  0.61723931  0.62742979    -0.09400
C450        C  0.41371390  0.58493546  0.62905184    -0.11000
C451        C  0.09994407  0.89931704  0.62553330    -0.09400
C452        C  0.06718213  0.93194929  0.62735873    -0.11000
C453        C  0.35797830  0.87531320  0.61625134    -0.09400
C454        C  0.38471103  0.90269126  0.61406324    -0.11000
C455        C  0.12382700  0.64251110  0.61561582    -0.09400
C456        C  0.09674431  0.61526200  0.61419052    -0.11000
O457        O  0.68956666  0.16819639  0.63494063    -0.74600
C458        C  0.84166139  0.15598792  0.62447913     0.86400
O459        O  0.74252640  0.29682462  0.68823530    -0.75800
O460        O  0.83407828  0.30578927  0.60237559    -0.77200
O461        O  0.70372593  0.26846979  0.55184635    -0.77000
O462        O  0.64888500  0.21072539  0.60005035    -0.75700
Zn463      Zn  0.74308333  0.20221485  0.64485077     1.55700
O464        O  0.78254879  0.25034137  0.55283550    -0.77100
Cd465      Cd  0.68436748  0.26646758  0.59480640     1.59700
Cd466      Cd  0.73802548  0.31501880  0.64531430     1.59600
O467        O  0.63775339  0.32831582  0.60506207    -0.77100
O468        O  0.74104236  0.25768852  0.62056115    -1.87600
Cd469      Cd  0.79904360  0.25014414  0.59617490     1.59900
O470        O  0.67450544  0.36087426  0.63986866    -0.77000
O471        O  0.84509781  0.18848461  0.60657116    -0.75700
C472        C  0.74078166  0.25792473  0.70071682     0.86900
C473        C  0.65565950  0.17539461  0.61695030     0.86500
O474        O  0.80509273  0.15672669  0.63988421    -0.74600
C475        C  0.74361779  0.26002862  0.53919058     0.87300
O476        O  0.73897980  0.22015241  0.68688711    -0.74700
C477        C  0.63933302  0.36091901  0.62334321     0.87500
C478        C  0.82641158  0.34241339  0.61821817     0.87800
O479        O  0.79175077  0.35110310  0.63552764    -0.77100
C480        C  0.52727675  0.47186382  0.62837859     0.33900
C481        C  0.95385313  0.04518988  0.62920453     0.33900
C482        C  0.98256586  0.46272249  0.61325488    -0.02300
C483        C  0.50951819  0.48858831  0.65826145    -0.03100
C484        C  0.53675507  0.01712272  0.61414068    -0.03000
C485        C  0.94428144  0.50094168  0.61369222    -0.02400
C486        C  0.97168034  0.02638488  0.65867934    -0.03100
C487        C  0.49855519  0.05530998  0.61456972    -0.03000
C488        C  0.90375209  0.48179809  0.61309389    -0.28400
N489        N  0.91600430  0.43429389  0.61145857     0.18100
C490        C  0.96353828  0.42213240  0.61241510    -0.28400
H491        H  0.98269621  0.38647007  0.61575123     0.20000
C492        C  0.96063859  0.03674057  0.68694743    -0.27400
N493        N  0.49084196  0.00613386  0.70343515     0.16800
C494        C  0.52087520  0.47654314  0.68629443    -0.27400
C495        C  0.51759228  0.09593272  0.61403952    -0.27700
N496        N  0.56512719  0.08374074  0.61237466     0.17300
H497        H  0.49854852  0.13154702  0.61771130     0.20000
C498        C  0.57734576  0.03614577  0.61334113    -0.27700
H499        H  0.61305260  0.01695475  0.61637925     0.20000
H500        H  0.54884325  0.44867441  0.69369636     0.20000
H501        H  0.86821183  0.50072665  0.61704789     0.20000
H502        H  0.93302675  0.06442166  0.69494954     0.20000
O503        O  0.55793722  0.40592891  0.85102468    -0.74600
C504        C  0.90843849  0.42455119  0.87370996     0.86400
O505        O  0.49473541  0.04588317  0.80262298    -0.75800
O506        O  0.89029524  0.07762166  0.88523209    -0.77200
O507        O  0.53469247  0.99998336  0.93816541    -0.77000
O508        O  0.59745173  0.43750305  0.88481368    -0.75700
Zn509      Zn  0.49584002  0.45129723  0.84595852     1.55700
O510        O  0.95587360  0.01825962  0.93877638    -0.77100
Cd511      Cd  0.55152611  0.99938190  0.89490832     1.59700
Cd512      Cd  0.49088512  0.06412706  0.84553563     1.59600
O513        O  0.58683868  0.05482599  0.88873261    -0.77100
O514        O  0.49372347  0.00688382  0.87025107    -1.87600
Cd515      Cd  0.93687895  0.01590380  0.89574450     1.59900
O516        O  0.54491076  0.09988916  0.85530483    -0.77000
O517        O  0.90148220  0.46011271  0.89046945    -0.75700
C518        C  0.49266350  0.50702237  0.79012371     0.86900
C519        C  0.59425075  0.40507861  0.86674939     0.86500
O520        O  0.94247049  0.41716509  0.85586595    -0.74600
C521        C  0.49565318  0.00983213  0.95162015     0.87300
O522        O  0.49116831  0.46921509  0.80392958    -0.74700
C523        C  0.57945613  0.09124909  0.87275434     0.87500
C524        C  0.89215389  0.11028575  0.86709974     0.87800
O525        O  0.92757917  0.11029635  0.85087034    -0.77100
C526        C  0.78001874  0.22111208  0.86213077     0.33900
C527        C  0.70648606  0.29432339  0.86199875     0.33900
C528        C  0.78967935  0.26621594  0.87656886    -0.02300
C529        C  0.76168412  0.23819065  0.83239763    -0.03100
C530        C  0.73562738  0.21169684  0.87739815    -0.03000
C531        C  0.75142787  0.30436891  0.87648766    -0.02400
C532        C  0.72378463  0.27592801  0.83236673    -0.03100
C533        C  0.69727712  0.24984664  0.87731820    -0.03000
C534        C  0.77044095  0.34501588  0.87704727    -0.28400
N535        N  0.81801225  0.33285761  0.87841710     0.18100
C536        C  0.83025145  0.28528215  0.87722657    -0.28400
H537        H  0.86590385  0.26615576  0.87391829     0.20000
C538        C  0.71202819  0.28660046  0.80423200    -0.27400
N539        N  0.74185899  0.25625124  0.78741342     0.16800
C540        C  0.77236965  0.22649868  0.80422740    -0.27400
C541        C  0.65681965  0.23059049  0.87801895    -0.27700
N542        N  0.66920597  0.18307257  0.87939118     0.17300
H543        H  0.62117237  0.24948977  0.87433383     0.20000
C544        C  0.71672484  0.17103193  0.87815124    -0.27700
H545        H  0.73589493  0.13543272  0.87458366     0.20000
H546        H  0.80013898  0.19870989  0.79651701     0.20000
H547        H  0.75129575  0.38064372  0.87358119     0.20000
H548        H  0.68411921  0.31427541  0.79653984     0.20000
O549        O  0.55277140  0.10775092  0.13515445    -0.74600
C550        C  0.90078059  0.12008047  0.12426549     0.86400
O551        O  0.99975183  0.47920045  0.18816788    -0.75800
O552        O  0.90814219  0.47031938  0.10204829    -0.77200
O553        O  0.53889934  0.00726044  0.05199754    -0.77000
O554        O  0.59356485  0.06499110  0.10040558    -0.75700
Zn555      Zn  0.99922912  0.07375815  0.14490859     1.55700
O556        O  0.96007874  0.02551578  0.05270301    -0.77100
Cd557      Cd  0.55804308  0.00931410  0.09501419     1.59700
Cd558      Cd  0.00417321  0.46094402  0.14524015     1.59600
O559        O  0.60456862  0.44748449  0.10532890    -0.77100
O560        O  0.00126675  0.01824331  0.12056667    -1.87600
Cd561      Cd  0.94336814  0.02584740  0.09597594     1.59900
O562        O  0.56761445  0.41491511  0.13990045    -0.77000
O563        O  0.89740681  0.08763078  0.10625129    -0.75700
C564        C  0.00155150  0.01810288  0.20069940     0.86900
C565        C  0.58674542  0.10042269  0.11726784     0.86500
O566        O  0.93725101  0.11925634  0.13984138    -0.74600
C567        C  0.99908054  0.01575264  0.03920079     0.87300
O568        O  0.00333862  0.05586513  0.18692311    -0.74700
C569        C  0.60287237  0.41486271  0.12351445     0.87500
C570        C  0.91567607  0.43376195  0.11790988     0.87800
O571        O  0.95030037  0.42505404  0.13530059    -0.77100
C572        C  0.71502852  0.30403181  0.12843079     0.33900
C573        C  0.78856694  0.23083204  0.12904209     0.33900
C574        C  0.75955323  0.31327563  0.11324111    -0.02300
C575        C  0.73309251  0.28730881  0.15826400    -0.03100
C576        C  0.70549479  0.25875538  0.11414853    -0.03000
C577        C  0.79789806  0.27512691  0.11356751    -0.02400
C578        C  0.77099320  0.24957722  0.15857023    -0.03100
C579        C  0.74375709  0.22061523  0.11447236    -0.03000
C580        C  0.83836672  0.29436061  0.11286349    -0.28400
N581        N  0.82600249  0.34185914  0.11125956     0.18100
C582        C  0.77847128  0.35392509  0.11235206    -0.28400
H583        H  0.75928105  0.38956870  0.11573112     0.20000
C584        C  0.78225954  0.23914444  0.18680755    -0.27400
N585        N  0.75212817  0.26964650  0.20338767     0.16800
C586        C  0.72191853  0.29923945  0.18633334    -0.27400
C587        C  0.72476809  0.17995206  0.11403167    -0.27700
N588        N  0.67720892  0.19207127  0.11251221     0.17300
H589        H  0.74389932  0.14437250  0.11768395     0.20000
C590        C  0.66493939  0.23965924  0.11348187    -0.27700
H591        H  0.62925618  0.25880905  0.11663715     0.20000
H592        H  0.69393746  0.32701611  0.19381776     0.20000
H593        H  0.87398155  0.27550182  0.11670724     0.20000
H594        H  0.80995685  0.21146335  0.19472614     0.20000
C595        C  0.96343890  0.05462443  0.36219724     0.33900
C596        C  0.53695052  0.48137500  0.36187320     0.33900
C597        C  0.95388904  0.00950994  0.37658048    -0.02300
C598        C  0.98152306  0.03757277  0.33242150    -0.03100
C599        C  0.50797339  0.06400592  0.37742199    -0.03000
C600        C  0.99212506  0.47135505  0.37640584    -0.02400
C601        C  0.51940759  0.99981737  0.33228809    -0.03100
C602        C  0.54631082  0.02582777  0.37724515    -0.03000
C603        C  0.97312582  0.43071127  0.37704631    -0.28400
N604        N  0.92556991  0.44287990  0.37854405     0.18100
C605        C  0.91331820  0.49045669  0.37735554    -0.28400
H606        H  0.87762602  0.00958007  0.37415259     0.20000
C607        C  0.53095755  0.48922508  0.30412248    -0.27400
N608        N  0.00101742  0.01963733  0.28739035     0.16800
C609        C  0.97064328  0.04935591  0.30428609    -0.27400
C610        C  0.58679043  0.04505339  0.37786057    -0.27700
N611        N  0.57445226  0.09257171  0.37925761     0.17300
H612        H  0.62238472  0.02612741  0.37407469     0.20000
C613        C  0.52692499  0.10464774  0.37813325    -0.27700
H614        H  0.50774796  0.14024572  0.37459350     0.20000
H615        H  0.94284309  0.07719145  0.29665379     0.20000
H616        H  0.99223351  0.39506681  0.37356660     0.20000
H617        H  0.55880912  0.46157152  0.29635112     0.20000
O618        O  0.68560687  0.36979900  0.35097897    -0.74600
C619        C  0.83509294  0.35116333  0.37398888     0.86400
O620        O  0.74869291  0.22976160  0.30253059    -0.75800
O621        O  0.85311726  0.19813865  0.38545176    -0.77200
O622        O  0.70855453  0.27580929  0.43803191    -0.77000
O623        O  0.64593840  0.33814914  0.38452307    -0.75700
Zn624      Zn  0.74770412  0.32437874  0.34599659     1.55700
O625        O  0.78737198  0.25759388  0.43889979    -0.77100
Cd626      Cd  0.69189201  0.27634088  0.39471301     1.59700
Cd627      Cd  0.75261765  0.21157177  0.34543562     1.59600
O628        O  0.65667009  0.22085413  0.38841708    -0.77100
O629        O  0.74977023  0.26883555  0.37023378    -1.87600
Cd630      Cd  0.80653192  0.25990575  0.39591677     1.59900
O631        O  0.69867872  0.17569935  0.35507245    -0.77000
O632        O  0.84197792  0.31569492  0.39078075    -0.75700
C633        C  0.75077756  0.26860583  0.29008351     0.86900
C634        C  0.64921061  0.37060704  0.36655639     0.86500
O635        O  0.80111186  0.35846523  0.35605231    -0.74600
C636        C  0.74753233  0.26599096  0.45161626     0.87300
O637        O  0.75234427  0.30640947  0.30394451    -0.74700
C638        C  0.66411924  0.18436499  0.37245572     0.87500
C639        C  0.85133205  0.16549700  0.36722920     0.87800
O640        O  0.81597562  0.16550636  0.35086626    -0.77100
C641        C  0.60571089  0.12419795  0.37660401    -0.09400
C642        C  0.63245165  0.15156279  0.37439526    -0.11000
C643        C  0.61029363  0.40939060  0.36375291    -0.09400
C644        C  0.57713507  0.44167936  0.36220106    -0.11000
C645        C  0.92348473  0.09450350  0.36302933    -0.09400
C646        C  0.89070650  0.12711103  0.36490172    -0.11000
C647        C  0.89398837  0.41131657  0.37677122    -0.09400
C648        C  0.86690984  0.38406041  0.37536258    -0.11000
C649        C  0.75173234  0.26992452  0.23344958    -0.09400
C650        C  0.75132751  0.26972833  0.25931153    -0.11000
C651        C  0.00116190  0.01981033  0.25733076    -0.09400
C652        C  0.00139304  0.01939890  0.23147041    -0.11000
C653        C  0.61858055  0.13329031  0.11597136    -0.09400
C654        C  0.64565397  0.16052445  0.11446779    -0.11000
C655        C  0.67504960  0.34387027  0.12752565    -0.09400
C656        C  0.64223593  0.37645335  0.12574416    -0.11000
C657        C  0.86189018  0.15885706  0.12715850    -0.09400
C658        C  0.82875598  0.19115098  0.12879041    -0.11000
C659        C  0.88399709  0.40095148  0.11589446    -0.09400
C660        C  0.85725643  0.37354775  0.11376080    -0.11000
C661        C  0.99668246  0.01187868  0.98247055    -0.09400
C662        C  0.99796890  0.01383751  0.00834857    -0.11000
C663        C  0.63794608  0.15139723  0.87685436    -0.09400
C664        C  0.61119505  0.12400507  0.87471991    -0.11000
C665        C  0.85278727  0.14866623  0.86472968    -0.09400
C666        C  0.81999002  0.18125404  0.86287303    -0.11000
C667        C  0.63315783  0.36629164  0.86398994    -0.09400
C668        C  0.66630011  0.33399923  0.86241951    -0.11000
C669        C  0.87665482  0.39163668  0.87504420    -0.09400
C670        C  0.84957742  0.36440287  0.87652040    -0.11000
C671        C  0.49200506  0.50589832  0.75935380    -0.09400
C672        C  0.49144659  0.50575315  0.73349375    -0.11000
C673        C  0.74635013  0.26392470  0.48246634    -0.09400
C674        C  0.74490604  0.26194063  0.50833864    -0.11000
C675        C  0.74107378  0.25662639  0.73148995    -0.09400
C676        C  0.74148784  0.25616317  0.75735142    -0.11000
C677        C  0.88057949  0.11723924  0.62742979    -0.09400
C678        C  0.91371394  0.08493539  0.62905184    -0.11000
C679        C  0.59994406  0.39931712  0.62553329    -0.09400
C680        C  0.56718196  0.43194924  0.62735872    -0.11000
C681        C  0.85797829  0.37531312  0.61625132    -0.09400
C682        C  0.88471098  0.40269123  0.61406323    -0.11000
C683        C  0.62382705  0.14251104  0.61561582    -0.09400
C684        C  0.59674436  0.11526194  0.61419052    -0.11000
O685        O  0.68956658  0.66819646  0.63494067    -0.74600
C686        C  0.84166133  0.65598800  0.62447913     0.86400
O687        O  0.74252645  0.79682469  0.68823531    -0.75800
O688        O  0.83407828  0.80578932  0.60237559    -0.77200
O689        O  0.70372602  0.76846985  0.55184635    -0.77000
O690        O  0.64888504  0.71072542  0.60005033    -0.75700
Zn691      Zn  0.74308318  0.70221492  0.64485077     1.55700
O692        O  0.78254888  0.75034143  0.55283551    -0.77100
Cd693      Cd  0.68436731  0.76646766  0.59480639     1.59700
Cd694      Cd  0.73802557  0.81501886  0.64531430     1.59600
O695        O  0.63775324  0.82831582  0.60506209    -0.77100
O696        O  0.74104217  0.75768860  0.62056116    -1.87600
Cd697      Cd  0.79904345  0.75014421  0.59617491     1.59900
O698        O  0.67450548  0.86087428  0.63986862    -0.77000
O699        O  0.84509780  0.68848469  0.60657116    -0.75700
C700        C  0.74078166  0.75792480  0.70071682     0.86900
C701        C  0.65565950  0.67539465  0.61695029     0.86500
O702        O  0.80509267  0.65672681  0.63988420    -0.74600
C703        C  0.74361789  0.76002869  0.53919058     0.87300
O704        O  0.73897981  0.72015249  0.68688710    -0.74700
C705        C  0.63933298  0.86091899  0.62334322     0.87500
C706        C  0.82641161  0.84241346  0.61821816     0.87800
O707        O  0.79175083  0.85110317  0.63552763    -0.77100
C708        C  0.52727680  0.97186381  0.62837859     0.33900
C709        C  0.95385303  0.54518989  0.62920454     0.33900
C710        C  0.98256596  0.96272244  0.61325487    -0.02300
C711        C  0.50951827  0.98858831  0.65826145    -0.03100
C712        C  0.53675506  0.51712272  0.61414068    -0.03000
C713        C  0.94428155  0.00094165  0.61369221    -0.02400
C714        C  0.97168031  0.52638488  0.65867934    -0.03100
C715        C  0.49855519  0.55530997  0.61456970    -0.03000
C716        C  0.90375223  0.98179811  0.61309388    -0.28400
N717        N  0.91600433  0.93429393  0.61145857     0.18100
C718        C  0.96353832  0.92213238  0.61241511    -0.28400
H719        H  0.98269617  0.88647002  0.61575124     0.20000
C720        C  0.96063870  0.53674059  0.68694745    -0.27400
N721        N  0.49084199  0.50613386  0.70343515     0.16800
C722        C  0.52087527  0.97654320  0.68629445    -0.27400
C723        C  0.51759227  0.59593273  0.61403953    -0.27700
N724        N  0.56512721  0.58374076  0.61237466     0.17300
H725        H  0.49854849  0.63154694  0.61771131     0.20000
C726        C  0.57734575  0.53614578  0.61334113    -0.27700
H727        H  0.61305256  0.51695475  0.61637925     0.20000
H728        H  0.54884337  0.94867454  0.69369640     0.20000
H729        H  0.86821183  0.00072684  0.61704790     0.20000
H730        H  0.93302684  0.56442169  0.69494958     0.20000
O731        O  0.55793733  0.90592895  0.85102464    -0.74600
C732        C  0.90843849  0.92455113  0.87370997     0.86400
O733        O  0.49473558  0.54588301  0.80262300    -0.75800
O734        O  0.89029531  0.57762172  0.88523209    -0.77200
O735        O  0.53469261  0.49998335  0.93816545    -0.77000
O736        O  0.59745169  0.93750308  0.88481371    -0.75700
Zn737      Zn  0.49584013  0.95129728  0.84595851     1.55700
O738        O  0.95587348  0.51825943  0.93877641    -0.77100
Cd739      Cd  0.55152607  0.49938183  0.89490833     1.59700
Cd740      Cd  0.49088502  0.56412686  0.84553563     1.59600
O741        O  0.58683878  0.55482588  0.88873265    -0.77100
O742        O  0.49372340  0.50688377  0.87025109    -1.87600
Cd743      Cd  0.93687900  0.51590384  0.89574451     1.59900
O744        O  0.54491086  0.59988887  0.85530480    -0.77000
O745        O  0.90148220  0.96011263  0.89046948    -0.75700
C746        C  0.49266342  0.00702247  0.79012371     0.86900
C747        C  0.59425082  0.90507865  0.86674939     0.86500
O748        O  0.94247043  0.91716511  0.85586591    -0.74600
C749        C  0.49565327  0.50983208  0.95162015     0.87300
O750        O  0.49116842  0.96921517  0.80392960    -0.74700
C751        C  0.57945623  0.59124891  0.87275432     0.87500
C752        C  0.89215396  0.61028579  0.86709973     0.87800
O753        O  0.92757928  0.61029635  0.85087034    -0.77100
C754        C  0.78001870  0.72111207  0.86213078     0.33900
C755        C  0.70648606  0.79432339  0.86199875     0.33900
C756        C  0.78967933  0.76621595  0.87656885    -0.02300
C757        C  0.76168404  0.73819063  0.83239764    -0.03100
C758        C  0.73562733  0.71169681  0.87739815    -0.03000
C759        C  0.75142786  0.80436892  0.87648766    -0.02400
C760        C  0.72378462  0.77592805  0.83236673    -0.03100
C761        C  0.69727708  0.74984662  0.87731820    -0.03000
C762        C  0.77044095  0.84501590  0.87704726    -0.28400
N763        N  0.81801224  0.83285762  0.87841710     0.18100
C764        C  0.83025149  0.78528212  0.87722656    -0.28400
H765        H  0.86590364  0.76615588  0.87391830     0.20000
C766        C  0.71202820  0.78660058  0.80423200    -0.27400
N767        N  0.74185899  0.75625133  0.78741343     0.16800
C768        C  0.77236953  0.72649872  0.80422741    -0.27400
C769        C  0.65681956  0.73059051  0.87801894    -0.27700
N770        N  0.66920590  0.68307255  0.87939118     0.17300
H771        H  0.62117242  0.74948975  0.87433383     0.20000
C772        C  0.71672478  0.67103191  0.87815124    -0.27700
H773        H  0.73589488  0.63543268  0.87458365     0.20000
H774        H  0.80013897  0.69870973  0.79651699     0.20000
H775        H  0.75129581  0.88064375  0.87358119     0.20000
H776        H  0.68411921  0.81427542  0.79653986     0.20000
O777        O  0.55277129  0.60775069  0.13515448    -0.74600
C778        C  0.90078057  0.62008050  0.12426550     0.86400
O779        O  0.99975196  0.97920043  0.18816788    -0.75800
O780        O  0.90814231  0.97031942  0.10204829    -0.77200
O781        O  0.53889941  0.50726049  0.05199755    -0.77000
O782        O  0.59356474  0.56499110  0.10040554    -0.75700
Zn783      Zn  0.99922924  0.57375797  0.14490859     1.55700
O784        O  0.96007871  0.52551580  0.05270298    -0.77100
Cd785      Cd  0.55804314  0.50931413  0.09501420     1.59700
Cd786      Cd  0.00417309  0.96094408  0.14524015     1.59600
O787        O  0.60456852  0.94748448  0.10532891    -0.77100
O788        O  0.00126672  0.51824329  0.12056666    -1.87600
Cd789      Cd  0.94336799  0.52584744  0.09597594     1.59900
O790        O  0.56761435  0.91491513  0.13990046    -0.77000
O791        O  0.89740678  0.58763087  0.10625126    -0.75700
C792        C  0.00155137  0.51810291  0.20069940     0.86900
C793        C  0.58674530  0.60042259  0.11726786     0.86500
O794        O  0.93725098  0.61925630  0.13984142    -0.74600
C795        C  0.99908055  0.51575264  0.03920079     0.87300
O796        O  0.00333870  0.55586510  0.18692311    -0.74700
C797        C  0.60287225  0.91486270  0.12351446     0.87500
C798        C  0.91567616  0.93376199  0.11790987     0.87800
O799        O  0.95030042  0.92505406  0.13530060    -0.77100
C800        C  0.71502853  0.80403178  0.12843079     0.33900
C801        C  0.78856696  0.73083202  0.12904208     0.33900
C802        C  0.75955323  0.81327561  0.11324109    -0.02300
C803        C  0.73309260  0.78730881  0.15826400    -0.03100
C804        C  0.70549480  0.75875531  0.11414855    -0.03000
C805        C  0.79789808  0.77512690  0.11356750    -0.02400
C806        C  0.77099329  0.74957723  0.15857023    -0.03100
C807        C  0.74375710  0.72061516  0.11447237    -0.03000
C808        C  0.83836681  0.79436059  0.11286350    -0.28400
N809        N  0.82600249  0.84185918  0.11125956     0.18100
C810        C  0.77847133  0.85392500  0.11235206    -0.28400
H811        H  0.75928084  0.88956895  0.11573116     0.20000
C812        C  0.78225972  0.73914442  0.18680754    -0.27400
N813        N  0.75212832  0.76964652  0.20338767     0.16800
C814        C  0.72191866  0.79923935  0.18633333    -0.27400
C815        C  0.72476812  0.67995190  0.11403168    -0.27700
N816        N  0.67720892  0.69207116  0.11251221     0.17300
H817        H  0.74389924  0.64437257  0.11768394     0.20000
C818        C  0.66493941  0.73965913  0.11348187    -0.27700
H819        H  0.62925621  0.75880893  0.11663714     0.20000
H820        H  0.69393733  0.82701616  0.19381781     0.20000
H821        H  0.87398138  0.77550198  0.11670723     0.20000
H822        H  0.80995685  0.71146341  0.19472610     0.20000
C823        C  0.96343886  0.55462442  0.36219723     0.33900
C824        C  0.53695055  0.98137500  0.36187320     0.33900
C825        C  0.95388900  0.50950993  0.37658046    -0.02300
C826        C  0.98152311  0.53757277  0.33242151    -0.03100
C827        C  0.50797343  0.56400591  0.37742199    -0.03000
C828        C  0.99212509  0.97135504  0.37640585    -0.02400
C829        C  0.51940757  0.49981736  0.33228809    -0.03100
C830        C  0.54631084  0.52582775  0.37724515    -0.03000
C831        C  0.97312586  0.93071126  0.37704631    -0.28400
N832        N  0.92556997  0.94287989  0.37854406     0.18100
C833        C  0.91331833  0.99045665  0.37735554    -0.28400
H834        H  0.87762616  0.50957994  0.37415261     0.20000
C835        C  0.53095760  0.98922515  0.30412246    -0.27400
N836        N  0.00101734  0.51963719  0.28739035     0.16800
C837        C  0.97064334  0.54935591  0.30428610    -0.27400
C838        C  0.58679047  0.54505335  0.37786056    -0.27700
N839        N  0.57445231  0.59257170  0.37925761     0.17300
H840        H  0.62238470  0.52612736  0.37407469     0.20000
C841        C  0.52692510  0.60464766  0.37813325    -0.27700
H842        H  0.50774788  0.64024596  0.37459347     0.20000
H843        H  0.94284323  0.57719149  0.29665379     0.20000
H844        H  0.99223359  0.89506670  0.37356658     0.20000
H845        H  0.55880912  0.96157170  0.29635111     0.20000
O846        O  0.68560678  0.86979882  0.35097897    -0.74600
C847        C  0.83509288  0.85116342  0.37398888     0.86400
O848        O  0.74869275  0.72976164  0.30253061    -0.75800
O849        O  0.85311733  0.69813868  0.38545173    -0.77200
O850        O  0.70855454  0.77580939  0.43803192    -0.77000
O851        O  0.64593828  0.83814902  0.38452307    -0.75700
Zn852      Zn  0.74770396  0.82437876  0.34599659     1.55700
O853        O  0.78737198  0.75759391  0.43889977    -0.77100
Cd854      Cd  0.69189211  0.77634092  0.39471301     1.59700
Cd855      Cd  0.75261750  0.71157183  0.34543563     1.59600
O856        O  0.65667023  0.72085411  0.38841704    -0.77100
O857        O  0.74977030  0.76883560  0.37023378    -1.87600
Cd858      Cd  0.80653203  0.75990580  0.39591677     1.59900
O859        O  0.69867885  0.67569920  0.35507247    -0.77000
O860        O  0.84197797  0.81569499  0.39078073    -0.75700
C861        C  0.75077747  0.76860582  0.29008351     0.86900
C862        C  0.64921055  0.87060694  0.36655640     0.86500
O863        O  0.80111171  0.85846532  0.35605236    -0.74600
C864        C  0.74753236  0.76599103  0.45161625     0.87300
O865        O  0.75234412  0.80640951  0.30394449    -0.74700
C866        C  0.66411938  0.68436491  0.37245572     0.87500
C867        C  0.85133197  0.66549701  0.36722920     0.87800
O868        O  0.81597548  0.66550641  0.35086630    -0.77100
C869        C  0.60571100  0.62419791  0.37660402    -0.09400
C870        C  0.63245181  0.65156270  0.37439529    -0.11000
C871        C  0.61029370  0.90939063  0.36375294    -0.09400
C872        C  0.57713516  0.94167941  0.36220106    -0.11000
C873        C  0.92348463  0.59450348  0.36302932    -0.09400
C874        C  0.89070636  0.62711099  0.36490171    -0.11000
C875        C  0.89398841  0.91131656  0.37677121    -0.09400
C876        C  0.86690982  0.88406048  0.37536254    -0.11000
C877        C  0.75173241  0.76992449  0.23344958    -0.09400
C878        C  0.75132746  0.76972823  0.25931153    -0.11000
C879        C  0.00116173  0.51981029  0.25733076    -0.09400
C880        C  0.00139281  0.51939897  0.23147041    -0.11000
C881        C  0.61858047  0.63329023  0.11597139    -0.09400
C882        C  0.64565394  0.66052431  0.11446779    -0.11000
C883        C  0.67504950  0.84387023  0.12752566    -0.09400
C884        C  0.64223577  0.87645326  0.12574414    -0.11000
C885        C  0.86189020  0.65885713  0.12715849    -0.09400
C886        C  0.82875601  0.69115103  0.12879041    -0.11000
C887        C  0.88399716  0.90095151  0.11589445    -0.09400
C888        C  0.85725647  0.87354780  0.11376080    -0.11000
C889        C  0.99668249  0.51187867  0.98247055    -0.09400
C890        C  0.99796902  0.51383738  0.00834858    -0.11000
C891        C  0.63794606  0.65139720  0.87685435    -0.09400
C892        C  0.61119509  0.62400498  0.87471990    -0.11000
C893        C  0.85278733  0.64866630  0.86472968    -0.09400
C894        C  0.81999002  0.68125408  0.86287303    -0.11000
C895        C  0.63315792  0.86629170  0.86398995    -0.09400
C896        C  0.66630012  0.83399920  0.86241952    -0.11000
C897        C  0.87665489  0.89163658  0.87504423    -0.09400
C898        C  0.84957741  0.86440284  0.87652040    -0.11000
C899        C  0.49200492  0.00589838  0.75935381    -0.09400
C900        C  0.49144648  0.00575324  0.73349376    -0.11000
C901        C  0.74635021  0.76392477  0.48246634    -0.09400
C902        C  0.74490616  0.76194070  0.50833865    -0.11000
C903        C  0.74107377  0.75662645  0.73148995    -0.09400
C904        C  0.74148777  0.75616322  0.75735142    -0.11000
C905        C  0.88057935  0.61723926  0.62742978    -0.09400
C906        C  0.91371380  0.58493541  0.62905184    -0.11000
C907        C  0.59994408  0.89931709  0.62553332    -0.09400
C908        C  0.56718205  0.93194926  0.62735873    -0.11000
C909        C  0.85797833  0.87531316  0.61625132    -0.09400
C910        C  0.88471100  0.90269129  0.61406324    -0.11000
C911        C  0.62382708  0.64251108  0.61561579    -0.09400
C912        C  0.59674439  0.61526197  0.61419051    -0.11000
loop_ 
_geom_bond_atom_site_label_1 
_geom_bond_atom_site_label_2 
_geom_bond_distance 
_geom_bond_site_symmetry_2 
_ccdc_geom_bond_type 
O1           C17   1.274       .  A
O1           Zn7   2.027       .  S
C2           O18   1.273       .  A
C2           O15   1.273       .  A
C2          C221   1.434       .  S
O3           C16   1.272       .  A
O3          Cd10   2.068       .  S
O4           C22   1.272       .  A
O4          Cd13   2.066       .  S
O5           C19   1.275       .  A
O5           Cd9   2.084       .  S
O6           C17   1.274       .  A
O6           Cd9   2.072       .  S
Zn7          O18   2.023       .  S
Zn7          O20   2.025       .  S
Zn7          O12   1.952       .  S
O8           C19   1.274       .  A
O8          Cd13   2.075       .  S
Cd9          O11   2.077       .  S
Cd9          O12   2.004       .  S
Cd10         O14   2.063       .  S
Cd10         O23   2.070       .  S
Cd10         O12   2.002       .  S
O11          C21   1.274       .  A
O12         Cd13   2.001       .  S
Cd13         O15   2.067       .  S
O14          C21   1.272       .  A
C16          O20   1.273       .  A
C16         C219   1.436       .  S
C17         C227   1.437       .  S
C19         C218   1.441       .  S
C21         C223   1.433       .  S
C22          O23   1.273       .  A
C22         C225   1.433       .  S
C24          C27   1.531       .  S
C24         C482   1.533   1_455  S
C24         C256   1.533       .  S
C24         C224   1.468       .  S
C25          C30   1.531       .  S
C25         C257   1.533       .  S
C25         C487   1.534       .  S
C25         C222   1.468       .  S
C26         C480   1.533       .  S
C26          C34   1.381       .  A
C26          C29   1.406       .  A
C27          C38   1.376       .  A
C27         C714   1.390   1_455  A
C28         C252   1.533   1_545  S
C28          C42   1.381       .  A
C28          C31   1.404   1_455  A
C29         C253   1.533       .  S
C29          C32   1.381       .  A
C30          C36   1.376       .  A
C30         C711   1.390   1_545  A
C31         C481   1.534       .  S
C31          C39   1.382   1_655  A
C32          N33   1.350       .  A
C32          H45   1.083       .  S
N33          C34   1.350       .  A
N33         C226   1.401       .  S
C34          H35   1.083       .  S
C36         N493   1.356       .  A
C36          H46   1.083       .  S
N37         C492   1.356       .  A
N37         C266   1.356   1_645  A
N37         C444   1.402       .  S
C38         N265   1.356   1_455  A
C38          H44   1.083       .  S
C39          N40   1.351       .  A
C39          H41   1.083   1_455  S
N40          C42   1.351       .  A
N40         C228   1.403       .  S
C42          H43   1.083       .  S
O47          C63   1.273       .  A
O47         Zn53   2.023   1_455  S
C48          O64   1.274       .  A
C48          O61   1.274       .  A
C48         C213   1.437       .  S
O49         C290   1.272       .  A
O49         Cd56   2.066       .  S
O50          C68   1.274       .  A
O50         Cd59   2.077       .  S
O51          C65   1.274   1_465  A
O51         Cd55   2.075       .  S
O52          C63   1.273       .  A
O52        Cd283   2.066       .  S
Zn53         O66   2.026       .  S
Zn53        O520   2.027       .  S
Zn53        O286   1.952       .  S
O54         C521   1.275       .  A
O54         Cd59   2.084       .  S
Cd55         O57   2.067   1_565  S
Cd55        O280   2.066       .  S
Cd55         O58   2.001   1_465  S
Cd56         O60   2.070   1_655  S
Cd56        O525   2.063       .  S
Cd56         O58   2.002       .  S
O57          C67   1.273       .  A
O58        Zn281   1.952   1_545  S
O58        Cd515   2.003       .  S
Cd59        O289   2.071   1_545  S
Cd59        O514   2.003       .  S
O60          C67   1.273       .  A
O61        Cd287   2.071       .  S
C62          O66   1.273       .  A
C62         O277   1.272       .  A
C62         C215   1.436       .  S
C63         C211   1.434       .  S
O64        Zn509   2.027       .  S
C65         O510   1.275       .  A
C65         C661   1.440       .  S
C67         C208   1.434       .  S
C68          O69   1.272       .  A
C68         C209   1.433       .  S
O69        Cd512   2.063       .  S
C70          C72   1.533       .  S
C70          C74   1.533       .  S
C70          C73   1.532       .  S
C70         C210   1.467       .  S
C71          C75   1.534       .  S
C71          C77   1.533       .  S
C71          C76   1.530       .  S
C71         C212   1.468       .  S
C72          C80   1.381       .  A
C72          C75   1.404       .  A
C73          C84   1.377       .  A
C73          C76   1.390       .  A
C74          C88   1.381       .  A
C74          C77   1.406       .  A
C75          C78   1.382       .  A
C76          C82   1.375       .  A
C77          C85   1.381       .  A
C78          N79   1.352       .  A
C78          H91   1.083       .  S
N79          C80   1.351       .  A
N79         C214   1.403       .  S
C80          H81   1.083       .  S
C82          N83   1.356       .  A
C82          H92   1.083       .  S
N83          C84   1.357       .  A
N83         C220   1.402       .  S
C84          H90   1.082       .  S
C85          N86   1.350       .  A
C85          H87   1.083       .  S
N86          C88   1.350       .  A
N86         C207   1.401       .  S
C88          H89   1.083       .  S
O93         C109   1.274       .  A
O93        Zn555   2.027   1_455  S
C94         O110   1.273       .  A
C94         O107   1.273       .  A
C94         C201   1.434       .  S
O95         C336   1.272       .  A
O95        Cd102   2.067       .  S
O96         C114   1.273       .  A
O96        Cd333   2.067       .  S
O97         C567   1.275   1_455  A
O97        Cd101   2.084       .  S
O98         C109   1.274       .  A
O98        Cd101   2.071       .  S
Zn99        O110   2.022       .  S
Zn99        O112   2.024       .  S
Zn99        O549   2.027       .  S
Zn99        O104   1.952       .  S
O100        C111   1.274       .  A
O100       Cd105   2.075       .  S
Cd101       O331   2.076   1_545  S
Cd101       O560   2.003       .  S
Cd102       O115   2.070       .  S
Cd102       O562   2.064       .  S
Cd102       O332   2.002       .  S
O103        C113   1.274       .  A
O103       Cd329   2.076       .  S
O104       Cd105   2.001       .  S
O104       Cd557   2.003       .  S
O104       Cd330   2.002   1_545  S
Cd105       O107   2.067       .  S
Cd105       O324   2.067   1_545  S
O106        C113   1.272       .  A
O106       Cd558   2.064       .  S
C108        O112   1.273       .  A
C108        O323   1.272   1_545  A
C108        C196   1.436       .  S
C109        C197   1.437       .  S
C111        O553   1.275       .  A
C111        C206   1.440       .  S
C113        C200   1.433       .  S
C114        O115   1.273       .  A
C114        C203   1.434       .  S
C116        C118   1.533       .  S
C116        C120   1.533       .  S
C116        C119   1.531       .  S
C116        C199   1.467       .  S
C117        C121   1.533       .  S
C117        C123   1.534       .  S
C117        C122   1.531       .  S
C117        C202   1.468       .  S
C118        C126   1.381       .  A
C118        C121   1.406       .  A
C119        C130   1.376       .  A
C119        C122   1.390       .  A
C120        C134   1.381       .  A
C120        C123   1.404       .  A
C121        C124   1.381       .  A
C122        C128   1.376       .  A
C123        C131   1.382       .  A
C124        N125   1.350       .  A
C124        H137   1.083       .  S
N125        C126   1.350       .  A
N125        C204   1.401       .  S
C126        H127   1.083       .  S
C128        N129   1.356       .  A
C128        H138   1.083       .  S
N129        C130   1.357       .  A
N129        C193   1.402       .  S
C130        H136   1.083       .  S
C131        N132   1.351       .  A
C131        H133   1.083       .  S
N132        C134   1.351       .  A
N132        C198   1.403       .  S
C134        H135   1.083       .  S
C139        C141   1.533       .  S
C139        C142   1.532       .  S
C139        C599   1.533       .  S
C139        C189   1.468       .  S
C140        C600   1.534   1_455  S
C140        C374   1.533       .  S
C140        C373   1.530       .  S
C140        C188   1.468       .  S
C141        C377   1.381   1_545  A
C141        C372   1.404   1_545  A
C142        C153   1.377       .  A
C142        C601   1.390   1_545  A
C143        C595   1.533   1_455  S
C143        C157   1.381       .  A
C143        C146   1.406       .  A
C144        C596   1.534       .  S
C144        C147   1.382       .  A
C144        C369   1.404       .  A
C145        C368   1.530       .  S
C145        C598   1.390   1_465  A
C145        C379   1.375       .  A
C146        C368   1.533   1_545  S
C146        C154   1.381       .  A
C147        N148   1.352       .  A
C147        H160   1.083       .  S
N148        C149   1.351       .  A
N148        C191   1.403       .  S
C149        C369   1.381       .  A
C149        H378   1.083       .  S
H150        C377   1.083   1_545  S
C151        C373   1.375       .  A
C151        N836   1.356       .  A
C151        H161   1.083       .  S
N152        C153   1.357       .  A
N152        C835   1.356   1_545  A
N152        C195   1.402       .  S
C153        H159   1.083       .  S
C154        N155   1.350       .  A
C154        H156   1.083       .  S
N155        C157   1.350       .  A
N155        C185   1.401       .  S
C157        H158   1.083       .  S
O162        C178   1.273       .  A
O162       Zn168   2.024       .  S
C163        O179   1.274       .  A
C163        O176   1.274       .  A
C163        C192   1.437       .  S
O164        C177   1.272       .  A
O164       Cd171   2.067       .  S
O165        C183   1.274       .  A
O165       Cd174   2.077       .  S
O166        C180   1.274       .  A
O166       Cd170   2.075       .  S
O167        C178   1.273       .  A
O167       Cd170   2.067       .  S
Zn168       O179   2.027       .  S
Zn168       O181   2.026       .  S
Zn168       O173   1.952       .  S
O169        C180   1.275       .  A
O169       Cd174   2.085       .  S
Cd170       O172   2.067       .  S
Cd170       O173   2.001       .  S
Cd171       O175   2.070       .  S
Cd171       O184   2.063       .  S
Cd171       O173   2.002       .  S
O172        C182   1.272       .  A
O173       Cd174   2.003       .  S
Cd174       O176   2.072       .  S
O175        C182   1.273       .  A
C177        O181   1.273       .  A
C177        C194   1.436       .  S
C178        C187   1.434       .  S
C180        C217   1.441       .  S
C182        C186   1.433       .  S
C183        O184   1.272       .  A
C183        C190   1.433       .  S
C185        C186   1.205       .  T
C187        C188   1.205       .  T
C189        C190   1.205       .  T
C191        C192   1.207       .  T
C193        C194   1.206       .  T
C195        C196   1.206       .  T
C197        C198   1.207       .  T
C199        C200   1.205       .  T
C201        C202   1.205       .  T
C203        C204   1.205       .  T
C205        C521   1.440       .  S
C205        C206   1.209   1_556  T
C207        C208   1.205       .  T
C209        C210   1.205       .  T
C211        C212   1.205       .  T
C213        C214   1.207       .  T
C215        C216   1.206       .  T
C216        N265   1.402       .  S
C217        C218   1.209       .  T
C219        C220   1.206       .  T
C221        C222   1.205       .  T
C223        C224   1.205       .  T
C225        C226   1.205       .  T
C227        C228   1.207       .  T
O229        C245   1.274       .  A
O229       Zn235   2.027       .  S
C230        O246   1.273       .  A
C230        O243   1.273       .  A
C230        C449   1.434       .  S
O231        C244   1.272       .  A
O231       Cd238   2.068       .  S
O232        C250   1.272       .  A
O232       Cd241   2.066       .  S
O233        C247   1.275       .  A
O233       Cd237   2.084       .  S
O234        C245   1.274       .  A
O234       Cd237   2.072       .  S
Zn235       O246   2.023       .  S
Zn235       O248   2.025       .  S
Zn235       O240   1.952       .  S
O236        C247   1.274       .  A
O236       Cd241   2.075       .  S
Cd237       O239   2.077       .  S
Cd237       O240   2.004       .  S
Cd238       O242   2.063       .  S
Cd238       O251   2.070       .  S
Cd238       O240   2.002       .  S
O239        C249   1.274       .  A
O240       Cd241   2.001       .  S
Cd241       O243   2.067       .  S
O242        C249   1.272       .  A
C244        O248   1.273       .  A
C244        C447   1.436       .  S
C245        C455   1.437       .  S
C247        C446   1.441       .  S
C249        C451   1.433       .  S
C250        O251   1.273       .  A
C250        C453   1.433       .  S
C252        C710   1.533   1_455  S
C252        C255   1.531       .  S
C252        C452   1.468       .  S
C253        C715   1.534       .  S
C253        C258   1.531       .  S
C253        C450   1.468       .  S
C254        C708   1.533       .  S
C254        C262   1.381       .  A
C254        C257   1.406   1_565  A
C255        C266   1.376       .  A
C255        C486   1.390   1_465  A
C256        C270   1.381       .  A
C256        C259   1.404   1_455  A
C257        C260   1.381   1_545  A
C258        C483   1.390       .  A
C258        C264   1.376       .  A
C259        C709   1.534       .  S
C259        C267   1.382   1_655  A
C260        N261   1.350       .  A
C260        H273   1.083   1_565  S
N261        C262   1.350       .  A
N261        C454   1.401       .  S
C262        H263   1.083       .  S
C264        N721   1.356       .  A
C264        H274   1.083       .  S
N265        C720   1.356       .  A
C266        H272   1.083       .  S
C267        N268   1.351       .  A
C267        H269   1.083   1_455  S
N268        C270   1.351       .  A
N268        C456   1.403       .  S
C270        H271   1.083       .  S
O275        C291   1.273       .  A
O275       Zn281   2.023   1_455  S
C276        O292   1.274       .  A
C276        O289   1.274       .  A
C276        C441   1.437       .  S
O277       Cd284   2.066       .  S
O278        C296   1.274       .  A
O278       Cd287   2.077       .  S
O279        C293   1.274   1_455  A
O279       Cd283   2.075       .  S
O280        C291   1.273       .  A
Zn281       O748   2.027       .  S
Zn281       O294   2.026       .  S
O282        C749   1.275       .  A
O282       Cd287   2.084       .  S
Cd283       O285   2.067       .  S
Cd283       O286   2.001   1_455  S
Cd284       O288   2.070   1_655  S
Cd284       O753   2.063       .  S
Cd284       O286   2.002       .  S
O285        C295   1.273       .  A
O286       Cd743   2.003       .  S
Cd287       O742   2.003       .  S
O288        C295   1.273       .  A
C290        O294   1.273   1_545  A
C290        C443   1.436       .  S
C291        C439   1.434       .  S
O292       Zn737   2.027       .  S
C293        O738   1.275       .  A
C293        C889   1.440       .  S
C295        C436   1.434       .  S
C296        O297   1.272       .  A
C296        C437   1.433       .  S
O297       Cd740   2.063       .  S
C298        C300   1.533       .  S
C298        C302   1.533       .  S
C298        C301   1.532       .  S
C298        C438   1.467       .  S
C299        C303   1.534       .  S
C299        C305   1.533       .  S
C299        C304   1.530       .  S
C299        C440   1.468       .  S
C300        C308   1.381       .  A
C300        C303   1.404       .  A
C301        C312   1.377       .  A
C301        C304   1.390       .  A
C302        C316   1.381       .  A
C302        C305   1.406       .  A
C303        C306   1.382       .  A
C304        C310   1.375       .  A
C305        C313   1.381       .  A
C306        N307   1.352       .  A
C306        H319   1.083       .  S
N307        C308   1.351       .  A
N307        C442   1.403       .  S
C308        H309   1.083       .  S
C310        N311   1.356       .  A
C310        H320   1.083       .  S
N311        C312   1.357       .  A
N311        C448   1.402       .  S
C312        H318   1.082       .  S
C313        N314   1.350       .  A
C313        H315   1.083       .  S
N314        C316   1.350       .  A
N314        C435   1.401       .  S
C316        H317   1.083       .  S
O321        C337   1.274       .  A
O321       Zn783   2.027   1_455  S
C322        O338   1.273       .  A
C322        O335   1.273       .  A
C322        C429   1.434       .  S
O323       Cd330   2.067       .  S
O324        C342   1.273       .  A
O325        C795   1.275   1_455  A
O325       Cd329   2.084       .  S
O326        C337   1.274       .  A
O326       Cd329   2.071       .  S
Zn327       O777   2.027       .  S
Zn327       O338   2.022       .  S
Zn327       O340   2.024       .  S
Zn327       O332   1.952       .  S
O328        C339   1.274       .  A
O328       Cd333   2.075       .  S
Cd329       O788   2.003       .  S
Cd330       O790   2.064       .  S
Cd330       O343   2.070       .  S
O331        C341   1.274       .  A
O332       Cd785   2.003       .  S
O332       Cd333   2.001       .  S
Cd333       O335   2.067       .  S
O334        C341   1.272       .  A
O334       Cd786   2.064       .  S
C336        O340   1.273       .  A
C336        C424   1.436       .  S
C337        C425   1.437       .  S
C339        O781   1.275       .  A
C339        C434   1.440       .  S
C341        C428   1.433       .  S
C342        O343   1.273       .  A
C342        C431   1.434       .  S
C344        C346   1.533       .  S
C344        C348   1.533       .  S
C344        C347   1.531       .  S
C344        C427   1.467       .  S
C345        C349   1.533       .  S
C345        C351   1.534       .  S
C345        C350   1.531       .  S
C345        C430   1.468       .  S
C346        C354   1.381       .  A
C346        C349   1.406       .  A
C347        C358   1.376       .  A
C347        C350   1.390       .  A
C348        C362   1.381       .  A
C348        C351   1.404       .  A
C349        C352   1.381       .  A
C350        C356   1.376       .  A
C351        C359   1.382       .  A
C352        N353   1.350       .  A
C352        H365   1.083       .  S
N353        C354   1.350       .  A
N353        C432   1.401       .  S
C354        H355   1.083       .  S
C356        N357   1.356       .  A
C356        H366   1.083       .  S
N357        C358   1.357       .  A
N357        C421   1.402       .  S
C358        H364   1.083       .  S
C359        N360   1.351       .  A
C359        H361   1.083       .  S
N360        C362   1.351       .  A
N360        C426   1.403       .  S
C362        H363   1.083       .  S
C367        C369   1.533       .  S
C367        C827   1.533       .  S
C367        C370   1.532       .  S
C367        C417   1.468       .  S
C368        C828   1.534   1_455  S
C368        C416   1.468       .  S
C370        C381   1.377       .  A
C370        C829   1.390       .  A
C371        C823   1.533   1_455  S
C371        C385   1.381       .  A
C371        C374   1.406       .  A
C372        C824   1.534       .  S
C372        C375   1.382       .  A
C373        C826   1.390   1_455  A
C374        C382   1.381       .  A
C375        N376   1.352       .  A
C375        H388   1.083       .  S
N376        C377   1.351       .  A
N376        C419   1.403       .  S
C379        N608   1.356   1_565  A
C379        H389   1.083       .  S
N380        C607   1.356       .  A
N380        C381   1.357       .  A
N380        C423   1.402       .  S
C381        H387   1.082       .  S
C382        N383   1.350       .  A
C382        H384   1.083       .  S
N383        C385   1.350       .  A
N383        C413   1.401       .  S
C385        H386   1.083       .  S
O390        C406   1.273       .  A
O390       Zn396   2.024       .  S
C391        O407   1.274       .  A
C391        O404   1.274       .  A
C391        C420   1.437       .  S
O392        C405   1.272       .  A
O392       Cd399   2.067       .  S
O393        C411   1.274       .  A
O393       Cd402   2.077       .  S
O394        C408   1.274       .  A
O394       Cd398   2.075       .  S
O395        C406   1.273       .  A
O395       Cd398   2.067       .  S
Zn396       O407   2.027       .  S
Zn396       O409   2.026       .  S
Zn396       O401   1.952       .  S
O397        C408   1.275       .  A
O397       Cd402   2.085       .  S
Cd398       O400   2.067       .  S
Cd398       O401   2.001       .  S
Cd399       O403   2.070       .  S
Cd399       O412   2.063       .  S
Cd399       O401   2.002       .  S
O400        C410   1.272       .  A
O401       Cd402   2.003       .  S
Cd402       O404   2.072       .  S
O403        C410   1.273       .  A
C405        O409   1.273       .  A
C405        C422   1.436       .  S
C406        C415   1.434       .  S
C408        C445   1.441       .  S
C410        C414   1.433       .  S
C411        O412   1.272       .  A
C411        C418   1.433       .  S
C413        C414   1.205       .  T
C415        C416   1.205       .  T
C417        C418   1.205       .  T
C419        C420   1.207       .  T
C421        C422   1.206       .  T
C423        C424   1.206       .  T
C425        C426   1.207       .  T
C427        C428   1.205       .  T
C429        C430   1.205       .  T
C431        C432   1.205       .  T
C433        C749   1.440       .  S
C433        C434   1.209   1_556  T
C435        C436   1.205       .  T
C437        C438   1.205       .  T
C439        C440   1.205       .  T
C441        C442   1.207       .  T
C443        C444   1.206       .  T
C445        C446   1.209       .  T
C447        C448   1.206       .  T
C449        C450   1.205       .  T
C451        C452   1.205       .  T
C453        C454   1.205       .  T
C455        C456   1.207       .  T
O457        C473   1.274       .  A
O457       Zn463   2.027       .  S
C458        O474   1.273       .  A
C458        O471   1.273       .  A
C458        C677   1.434       .  S
O459        C472   1.272       .  A
O459       Cd466   2.068       .  S
O460        C478   1.272       .  A
O460       Cd469   2.066       .  S
O461        C475   1.275       .  A
O461       Cd465   2.084       .  S
O462        C473   1.274       .  A
O462       Cd465   2.072       .  S
Zn463       O474   2.023       .  S
Zn463       O476   2.025       .  S
Zn463       O468   1.952       .  S
O464        C475   1.274       .  A
O464       Cd469   2.075       .  S
Cd465       O467   2.077       .  S
Cd465       O468   2.004       .  S
Cd466       O470   2.063       .  S
Cd466       O479   2.070       .  S
Cd466       O468   2.002       .  S
O467        C477   1.274       .  A
O468       Cd469   2.001       .  S
Cd469       O471   2.067       .  S
O470        C477   1.272       .  A
C472        O476   1.273       .  A
C472        C675   1.436       .  S
C473        C683   1.437       .  S
C475        C674   1.441       .  S
C477        C679   1.433       .  S
C478        O479   1.273       .  A
C478        C681   1.433       .  S
C480        C712   1.533       .  S
C480        C483   1.531       .  S
C480        C680   1.468       .  S
C481        C713   1.533       .  S
C481        C486   1.531       .  S
C481        C678   1.468       .  S
C482        C490   1.381       .  A
C482        C485   1.406       .  A
C483        C494   1.376       .  A
C484        C708   1.533   1_545  S
C484        C498   1.381       .  A
C484        C487   1.404       .  A
C485        C709   1.533       .  S
C485        C488   1.381       .  A
C486        C492   1.376       .  A
C487        C495   1.382       .  A
C488        N489   1.350       .  A
C488        H501   1.083       .  S
N489        C490   1.350       .  A
N489        C682   1.401       .  S
C490        H491   1.083       .  S
C492        H502   1.083       .  S
N493        C722   1.356   1_545  A
N493        C900   1.402       .  S
C494        N721   1.356       .  A
C494        H500   1.083       .  S
C495        N496   1.351       .  A
C495        H497   1.083       .  S
N496        C498   1.351       .  A
N496        C684   1.403       .  S
C498        H499   1.083       .  S
O503        C519   1.273       .  A
O503       Zn509   2.023       .  S
C504        O520   1.274       .  A
C504        O517   1.274       .  A
C504        C669   1.437       .  S
O505        C746   1.272       .  A
O505       Cd512   2.066       .  S
O506        C524   1.274       .  A
O506       Cd515   2.077       .  S
O507        C521   1.274   1_565  A
O507       Cd511   2.075       .  S
O508        C519   1.273       .  A
O508       Cd739   2.066       .  S
Zn509       O522   2.026       .  S
Zn509       O742   1.952       .  S
O510       Cd515   2.084       .  S
Cd511       O736   2.066       .  S
Cd511       O513   2.067   1_565  S
Cd511       O514   2.001   1_565  S
Cd512       O516   2.070       .  S
Cd512       O514   2.002       .  S
O513        C523   1.273       .  A
O514       Zn737   1.952   1_545  S
Cd515       O745   2.071   1_545  S
O516        C523   1.273       .  A
O517       Cd743   2.071       .  S
C518        O733   1.272       .  A
C518        O522   1.273       .  A
C518        C671   1.436       .  S
C519        C667   1.434       .  S
C523        C664   1.434       .  S
C524        O525   1.272       .  A
C524        C665   1.433       .  S
C526        C528   1.533       .  S
C526        C530   1.533       .  S
C526        C529   1.532       .  S
C526        C666   1.467       .  S
C527        C531   1.534       .  S
C527        C533   1.533       .  S
C527        C532   1.530       .  S
C527        C668   1.468       .  S
C528        C536   1.381       .  A
C528        C531   1.404       .  A
C529        C540   1.377       .  A
C529        C532   1.390       .  A
C530        C544   1.381       .  A
C530        C533   1.406       .  A
C531        C534   1.382       .  A
C532        C538   1.375       .  A
C533        C541   1.381       .  A
C534        N535   1.352       .  A
C534        H547   1.083       .  S
N535        C536   1.351       .  A
N535        C670   1.403       .  S
C536        H537   1.083       .  S
C538        N539   1.356       .  A
C538        H548   1.083       .  S
N539        C540   1.357       .  A
N539        C676   1.402       .  S
C540        H546   1.082       .  S
C541        N542   1.350       .  A
C541        H543   1.083       .  S
N542        C544   1.350       .  A
N542        C663   1.401       .  S
C544        H545   1.083       .  S
O549        C565   1.274       .  A
C550        O566   1.273       .  A
C550        O563   1.273       .  A
C550        C657   1.434       .  S
O551        C792   1.272   1_655  A
O551       Cd558   2.067   1_655  S
O552        C570   1.273       .  A
O552       Cd789   2.067       .  S
O553       Cd557   2.084       .  S
O554        C565   1.274       .  A
O554       Cd557   2.071       .  S
Zn555       O566   2.022       .  S
Zn555       O568   2.024   1_655  S
Zn555       O560   1.952   1_655  S
O556        C567   1.274       .  A
O556       Cd561   2.075       .  S
Cd557       O787   2.076   1_545  S
Cd558       O571   2.070   1_455  S
Cd558       O788   2.002       .  S
O559        C569   1.274       .  A
O559       Cd785   2.076       .  S
O560       Cd786   2.002   1_545  S
O560       Cd561   2.001   1_455  S
Cd561       O780   2.067   1_545  S
Cd561       O563   2.067       .  S
O562        C569   1.272       .  A
C564        O779   1.272   1_445  A
C564        O568   1.273       .  A
C564        C652   1.436       .  S
C565        C653   1.437       .  S
C567        C662   1.440       .  S
C569        C656   1.433       .  S
C570        O571   1.273       .  A
C570        C659   1.434       .  S
C572        C574   1.533       .  S
C572        C576   1.533       .  S
C572        C575   1.531       .  S
C572        C655   1.467       .  S
C573        C577   1.533       .  S
C573        C579   1.534       .  S
C573        C578   1.531       .  S
C573        C658   1.468       .  S
C574        C582   1.381       .  A
C574        C577   1.406       .  A
C575        C586   1.376       .  A
C575        C578   1.390       .  A
C576        C590   1.381       .  A
C576        C579   1.404       .  A
C577        C580   1.381       .  A
C578        C584   1.376       .  A
C579        C587   1.382       .  A
C580        N581   1.350       .  A
C580        H593   1.083       .  S
N581        C582   1.350       .  A
N581        C660   1.401       .  S
C582        H583   1.083       .  S
C584        N585   1.356       .  A
C584        H594   1.083       .  S
N585        C586   1.357       .  A
N585        C649   1.402       .  S
C586        H592   1.083       .  S
C587        N588   1.351       .  A
C587        H589   1.083       .  S
N588        C590   1.351       .  A
N588        C654   1.403       .  S
C590        H591   1.083       .  S
C595        C597   1.533       .  S
C595        C598   1.532       .  S
C595        C645   1.468       .  S
C596        C830   1.533       .  S
C596        C829   1.530       .  S
C596        C644   1.468       .  S
C597        C833   1.381   1_545  A
C597        C828   1.404   1_545  A
C598        C609   1.377       .  A
C599        C613   1.381       .  A
C599        C602   1.406       .  A
C600        C825   1.404       .  A
C600        C603   1.382       .  A
C601        C824   1.530       .  S
C601        C835   1.375       .  A
C602        C824   1.533   1_545  S
C602        C610   1.381       .  A
C603        N604   1.352       .  A
C603        H616   1.083       .  S
N604        C605   1.351       .  A
N604        C647   1.403       .  S
C605        C825   1.381       .  A
C605        H834   1.083       .  S
H606        C833   1.083   1_545  S
C607        C829   1.375       .  A
C607        H617   1.083       .  S
N608        C609   1.357   1_455  A
N608        C651   1.402       .  S
C609        H615   1.083       .  S
C610        N611   1.350       .  A
C610        H612   1.083       .  S
N611        C613   1.350       .  A
N611        C641   1.401       .  S
C613        H614   1.083       .  S
O618        C634   1.273       .  A
O618       Zn624   2.024       .  S
C619        O635   1.274       .  A
C619        O632   1.274       .  A
C619        C648   1.437       .  S
O620        C633   1.272       .  A
O620       Cd627   2.067       .  S
O621        C639   1.274       .  A
O621       Cd630   2.077       .  S
O622        C636   1.274       .  A
O622       Cd626   2.075       .  S
O623        C634   1.273       .  A
O623       Cd626   2.067       .  S
Zn624       O635   2.027       .  S
Zn624       O637   2.026       .  S
Zn624       O629   1.952       .  S
O625        C636   1.275       .  A
O625       Cd630   2.085       .  S
Cd626       O628   2.067       .  S
Cd626       O629   2.001       .  S
Cd627       O631   2.070       .  S
Cd627       O640   2.063       .  S
Cd627       O629   2.002       .  S
O628        C638   1.272       .  A
O629       Cd630   2.003       .  S
Cd630       O632   2.072       .  S
O631        C638   1.273       .  A
C633        O637   1.273       .  A
C633        C650   1.436       .  S
C634        C643   1.434       .  S
C636        C673   1.441       .  S
C638        C642   1.433       .  S
C639        O640   1.272       .  A
C639        C646   1.433       .  S
C641        C642   1.205       .  T
C643        C644   1.205       .  T
C645        C646   1.205       .  T
C647        C648   1.207       .  T
C649        C650   1.206       .  T
C651        C652   1.206       .  T
C653        C654   1.207       .  T
C655        C656   1.205       .  T
C657        C658   1.205       .  T
C659        C660   1.205       .  T
C661        C662   1.209   1_556  T
C663        C664   1.205       .  T
C665        C666   1.205       .  T
C667        C668   1.205       .  T
C669        C670   1.207       .  T
C671        C672   1.206       .  T
C672        N721   1.402       .  S
C673        C674   1.209       .  T
C675        C676   1.206       .  T
C677        C678   1.205       .  T
C679        C680   1.205       .  T
C681        C682   1.205       .  T
C683        C684   1.207       .  T
O685        C701   1.274       .  A
O685       Zn691   2.027       .  S
C686        O702   1.273       .  A
C686        O699   1.273       .  A
C686        C905   1.434       .  S
O687        C700   1.272       .  A
O687       Cd694   2.068       .  S
O688        C706   1.272       .  A
O688       Cd697   2.066       .  S
O689        C703   1.275       .  A
O689       Cd693   2.084       .  S
O690        C701   1.274       .  A
O690       Cd693   2.072       .  S
Zn691       O702   2.023       .  S
Zn691       O704   2.025       .  S
Zn691       O696   1.952       .  S
O692        C703   1.274       .  A
O692       Cd697   2.075       .  S
Cd693       O695   2.077       .  S
Cd693       O696   2.004       .  S
Cd694       O698   2.063       .  S
Cd694       O707   2.070       .  S
Cd694       O696   2.002       .  S
O695        C705   1.274       .  A
O696       Cd697   2.001       .  S
Cd697       O699   2.067       .  S
O698        C705   1.272       .  A
C700        O704   1.273       .  A
C700        C903   1.436       .  S
C701        C911   1.437       .  S
C703        C902   1.441       .  S
C705        C907   1.433       .  S
C706        O707   1.273       .  A
C706        C909   1.433       .  S
C708        C711   1.531       .  S
C708        C908   1.468       .  S
C709        C714   1.531       .  S
C709        C906   1.468       .  S
C710        C718   1.381       .  A
C710        C713   1.406   1_565  A
C711        C722   1.376       .  A
C712        C726   1.381       .  A
C712        C715   1.404       .  A
C713        C716   1.381   1_545  A
C714        C720   1.376       .  A
C715        C723   1.382       .  A
C716        N717   1.350       .  A
C716        H729   1.083   1_565  S
N717        C718   1.350       .  A
N717        C910   1.401       .  S
C718        H719   1.083       .  S
C720        H730   1.083       .  S
C722        H728   1.083       .  S
C723        N724   1.351       .  A
C723        H725   1.083       .  S
N724        C726   1.351       .  A
N724        C912   1.403       .  S
C726        H727   1.083       .  S
O731        C747   1.273       .  A
O731       Zn737   2.023       .  S
C732        O748   1.274       .  A
C732        O745   1.274       .  A
C732        C897   1.437       .  S
O733       Cd740   2.066       .  S
O734        C752   1.274       .  A
O734       Cd743   2.077       .  S
O735        C749   1.274       .  A
O735       Cd739   2.075       .  S
O736        C747   1.273       .  A
Zn737       O750   2.026       .  S
O738       Cd743   2.084       .  S
Cd739       O741   2.067       .  S
Cd739       O742   2.001       .  S
Cd740       O744   2.070       .  S
Cd740       O742   2.002       .  S
O741        C751   1.273       .  A
O744        C751   1.273       .  A
C746        O750   1.273   1_545  A
C746        C899   1.436       .  S
C747        C895   1.434       .  S
C751        C892   1.434       .  S
C752        O753   1.272       .  A
C752        C893   1.433       .  S
C754        C756   1.533       .  S
C754        C758   1.533       .  S
C754        C757   1.532       .  S
C754        C894   1.467       .  S
C755        C759   1.534       .  S
C755        C761   1.533       .  S
C755        C760   1.530       .  S
C755        C896   1.468       .  S
C756        C764   1.381       .  A
C756        C759   1.404       .  A
C757        C768   1.377       .  A
C757        C760   1.390       .  A
C758        C772   1.381       .  A
C758        C761   1.406       .  A
C759        C762   1.382       .  A
C760        C766   1.375       .  A
C761        C769   1.381       .  A
C762        N763   1.352       .  A
C762        H775   1.083       .  S
N763        C764   1.351       .  A
N763        C898   1.403       .  S
C764        H765   1.083       .  S
C766        N767   1.356       .  A
C766        H776   1.083       .  S
N767        C768   1.357       .  A
N767        C904   1.402       .  S
C768        H774   1.082       .  S
C769        N770   1.350       .  A
C769        H771   1.083       .  S
N770        C772   1.350       .  A
N770        C891   1.401       .  S
C772        H773   1.083       .  S
O777        C793   1.274       .  A
C778        O794   1.273       .  A
C778        O791   1.273       .  A
C778        C885   1.434       .  S
O779       Cd786   2.067   1_655  S
O780        C798   1.273       .  A
O781       Cd785   2.084       .  S
O782        C793   1.274       .  A
O782       Cd785   2.071       .  S
Zn783       O794   2.022       .  S
Zn783       O796   2.024   1_655  S
Zn783       O788   1.952   1_655  S
O784        C795   1.274       .  A
O784       Cd789   2.075       .  S
Cd786       O799   2.070   1_455  S
O787        C797   1.274       .  A
O788       Cd789   2.001   1_455  S
Cd789       O791   2.067       .  S
O790        C797   1.272       .  A
C792        O796   1.273       .  A
C792        C880   1.436       .  S
C793        C881   1.437       .  S
C795        C890   1.440       .  S
C797        C884   1.433       .  S
C798        O799   1.273       .  A
C798        C887   1.434       .  S
C800        C802   1.533       .  S
C800        C804   1.533       .  S
C800        C803   1.531       .  S
C800        C883   1.467       .  S
C801        C805   1.533       .  S
C801        C807   1.534       .  S
C801        C806   1.531       .  S
C801        C886   1.468       .  S
C802        C810   1.381       .  A
C802        C805   1.406       .  A
C803        C814   1.376       .  A
C803        C806   1.390       .  A
C804        C818   1.381       .  A
C804        C807   1.404       .  A
C805        C808   1.381       .  A
C806        C812   1.376       .  A
C807        C815   1.382       .  A
C808        N809   1.350       .  A
C808        H821   1.083       .  S
N809        C810   1.350       .  A
N809        C888   1.401       .  S
C810        H811   1.083       .  S
C812        N813   1.356       .  A
C812        H822   1.083       .  S
N813        C814   1.357       .  A
N813        C877   1.402       .  S
C814        H820   1.083       .  S
C815        N816   1.351       .  A
C815        H817   1.083       .  S
N816        C818   1.351       .  A
N816        C882   1.403       .  S
C818        H819   1.083       .  S
C823        C825   1.533       .  S
C823        C826   1.532       .  S
C823        C873   1.468       .  S
C824        C872   1.468       .  S
C826        C837   1.377       .  A
C827        C841   1.381       .  A
C827        C830   1.406       .  A
C828        C831   1.382       .  A
C830        C838   1.381       .  A
C831        N832   1.352       .  A
C831        H844   1.083       .  S
N832        C833   1.351       .  A
N832        C875   1.403       .  S
C835        H845   1.083       .  S
N836        C837   1.357   1_455  A
N836        C879   1.402       .  S
C837        H843   1.083       .  S
C838        N839   1.350       .  A
C838        H840   1.083       .  S
N839        C841   1.350       .  A
N839        C869   1.401       .  S
C841        H842   1.083       .  S
O846        C862   1.273       .  A
O846       Zn852   2.024       .  S
C847        O863   1.274       .  A
C847        O860   1.274       .  A
C847        C876   1.437       .  S
O848        C861   1.272       .  A
O848       Cd855   2.067       .  S
O849        C867   1.274       .  A
O849       Cd858   2.077       .  S
O850        C864   1.274       .  A
O850       Cd854   2.075       .  S
O851        C862   1.273       .  A
O851       Cd854   2.067       .  S
Zn852       O863   2.027       .  S
Zn852       O865   2.026       .  S
Zn852       O857   1.952       .  S
O853        C864   1.275       .  A
O853       Cd858   2.085       .  S
Cd854       O856   2.067       .  S
Cd854       O857   2.001       .  S
Cd855       O859   2.070       .  S
Cd855       O868   2.063       .  S
Cd855       O857   2.002       .  S
O856        C866   1.272       .  A
O857       Cd858   2.003       .  S
Cd858       O860   2.072       .  S
O859        C866   1.273       .  A
C861        O865   1.273       .  A
C861        C878   1.436       .  S
C862        C871   1.434       .  S
C864        C901   1.441       .  S
C866        C870   1.433       .  S
C867        O868   1.272       .  A
C867        C874   1.433       .  S
C869        C870   1.205       .  T
C871        C872   1.205       .  T
C873        C874   1.205       .  T
C875        C876   1.207       .  T
C877        C878   1.206       .  T
C879        C880   1.206       .  T
C881        C882   1.207       .  T
C883        C884   1.205       .  T
C885        C886   1.205       .  T
C887        C888   1.205       .  T
C889        C890   1.209   1_556  T
C891        C892   1.205       .  T
C893        C894   1.205       .  T
C895        C896   1.205       .  T
C897        C898   1.207       .  T
C899        C900   1.206       .  T
C901        C902   1.209       .  T
C903        C904   1.206       .  T
C905        C906   1.205       .  T
C907        C908   1.205       .  T
C909        C910   1.205       .  T
C911        C912   1.207       .  T
