geometry optimzed in LAMMPS
_audit_creation_date              2020-11-30 
_audit_creation_method            'lammps2cif' 
_symmetry_space_group_name_H-M    'P1' 
_symmetry_Int_Tables_number       1 
_symmetry_cell_setting            triclinic 
loop_ 
_symmetry_equiv_pos_as_xyz 
  x,y,z 
_cell_length_a                    43.50337407 
_cell_length_b                    52.047691375817536 
_cell_length_c                    30.58119978454701 
_cell_angle_alpha                 89.85127729386713 
_cell_angle_beta                  90.00726543061297 
_cell_angle_gamma                 90.0238673988556 
loop_ 
_atom_site_label 
_atom_site_type_symbol 
_atom_site_fract_x 
_atom_site_fract_y 
_atom_site_fract_z 
_atom_site_charge 
C1          C  0.48194885  0.52432965  0.00416105     0.02600
C2          C  0.51460598  0.52480122  0.00377434     0.02600
C3          C  0.53070259  0.50135156  0.00701319    -0.17900
C4          C  0.51545449  0.47737599  0.00845233     0.02600
C5          C  0.48281210  0.47697526  0.00655093     0.02600
C6          C  0.46672302  0.50043237  0.00555369    -0.17900
H7          H  0.44180050  0.50006265  0.00486102     0.04600
H8          H  0.55562091  0.50174623  0.00733379     0.04600
C9          C  0.01602145  0.97635003  0.99861371     0.02600
C10         C  0.98378752  0.97561258  0.99453994     0.02600
C11         C  0.96717672  0.99865931  0.99099413    -0.17900
C12         C  0.98202857  0.02265701  0.99130939     0.02600
C13         C  0.01452430  0.02329919  0.99504880     0.02600
C14         C  0.03099376  0.00015450  0.99821088    -0.17900
H15         H  0.05584060  0.00070078  0.00108363     0.04600
H16         H  0.94228375  0.99787816  0.98970368     0.04600
O17         O  0.19468099  0.23623405  0.03196092    -0.88000
C18         C  0.27779528  0.21454982  0.08095427     0.88000
Mg19       Mg  0.18227198  0.22848507  0.96535820     1.58100
O20         O  0.27186327  0.28077489  0.06063268    -0.87700
O21         O  0.20086168  0.26939393  0.07520879    -0.75100
C22         C  0.30352783  0.26556921  0.84842845     0.93100
O23         O  0.23494895  0.18656937  0.00803988    -0.74900
O24         O  0.28152023  0.24946566  0.84763065    -0.82400
Mg25       Mg  0.21224216  0.20430698  0.06893181     1.58000
C26         C  0.34273043  0.32040905  0.99767742     0.93000
O27         O  0.18887020  0.21736620  0.13294435    -0.80700
H28         H  0.25076751  0.31435408  0.07068046    -0.06000
C29         C  0.31465552  0.23919196  0.96670607     0.87900
O30         O  0.19639574  0.26943797  0.94507485    -0.75200
O31         O  0.25305311  0.22625061  0.08222405    -0.87900
O32         O  0.33817293  0.30638826  0.03143565    -0.80700
C33         C  0.31790126  0.26527508  0.15524511     0.93100
C34         C  0.19532456  0.23048848  0.16691359     0.93000
Mg35       Mg  0.28636725  0.29135217  0.94658402     1.58000
O36         O  0.30944761  0.27895130  0.88229363    -0.80700
O37         O  0.26369736  0.30839295  0.00777303    -0.74900
O38         O  0.28947830  0.25919380  0.15553927    -0.80700
O39         O  0.16984969  0.18036525  0.05423646    -0.82500
O40         O  0.21056184  0.23387304  0.85846386    -0.80800
C41         C  0.26202052  0.30173051  0.04768015     0.87400
O42         O  0.24601970  0.26871263  0.93260551    -0.87900
O43         O  0.30478755  0.25936171  0.98270749    -0.88000
O44         O  0.29902760  0.22613674  0.93959936    -0.75100
Mg45       Mg  0.24624231  0.26308292  0.11244326     1.58000
O46         O  0.33141644  0.27211279  0.12016603    -0.82400
H47         H  0.16328842  0.26411748  0.03690520    -0.06200
O48         O  0.22803807  0.21413109  0.95470934    -0.87700
H49         H  0.24873553  0.18027017  0.94555234    -0.06000
H50         H  0.22063965  0.30029047  0.92350222    -0.06200
C51         C  0.23742664  0.19312173  0.96812874     0.87400
C52         C  0.18516825  0.25659719  0.04775119     0.88000
C53         C  0.22116559  0.28024668  0.93283527     0.88000
H54         H  0.33676186  0.23199539  0.97725655    -0.06200
O55         O  0.30255702  0.22531903  0.06850111    -0.75200
Mg56       Mg  0.25358437  0.23174016  0.90259075     1.58000
H57         H  0.27822123  0.19439369  0.08956958    -0.06200
C58         C  0.15713351  0.17530992  0.01778800     0.93000
O59         O  0.16856680  0.22156945  0.89447405    -0.82400
C60         C  0.18241174  0.22701603  0.85893605     0.93100
O61         O  0.21802774  0.24587025  0.16761970    -0.82400
Mg62       Mg  0.31745801  0.26631240  0.04915766     1.58200
O63         O  0.16268857  0.18829895  0.98320248    -0.80700
O64         O  0.32834531  0.31619192  0.96204400    -0.82400
O65         O  0.69315240  0.25929909  0.98158101    -0.88000
C66         C  0.77651387  0.27990842  0.93338780     0.88000
Mg67       Mg  0.68094256  0.26820615  0.04739040     1.58100
O68         O  0.76986246  0.21415828  0.95798297    -0.87700
O69         O  0.69931020  0.22517488  0.94066149    -0.75100
C70         C  0.80192385  0.23388795  0.16833175     0.93100
O71         O  0.73309913  0.30971062  0.00306053    -0.74900
O72         O  0.77993621  0.24999411  0.16734244    -0.82400
Mg73       Mg  0.71064164  0.29060787  0.94326322     1.58000
C74         C  0.83871826  0.17464445  0.02140451     0.93000
O75         O  0.68799759  0.27563075  0.87989893    -0.80700
H76         H  0.74846943  0.18051551  0.94961384    -0.06000
C77         C  0.81347665  0.25719792  0.04879666     0.87900
O78         O  0.69533712  0.22772641  0.07004246    -0.75200
O79         O  0.75169131  0.26829100  0.93215383    -0.87900
O80         O  0.83442525  0.18873907  0.98774506    -0.80700
C81         C  0.81696456  0.22709776  0.86311344     0.93100
C82         C  0.69534467  0.26167780  0.84728447     0.93000
Mg83       Mg  0.78475922  0.20554820  0.07212261     1.58000
O84         O  0.80812156  0.21949319  0.13574784    -0.80700
O85         O  0.76176033  0.18737598  0.01210646    -0.74900
O86         O  0.78873181  0.23360415  0.86191429    -0.80700
O87         O  0.66769066  0.31517063  0.95654897    -0.82500
O88         O  0.70908044  0.26358313  0.15311529    -0.80800
C89         C  0.75990453  0.19344793  0.97194374     0.87400
O90         O  0.74483287  0.22863917  0.08382311    -0.87900
O91         O  0.80317106  0.23679812  0.03423000    -0.88000
O92         O  0.79795119  0.27127593  0.07445446    -0.75100
Mg93       Mg  0.74522898  0.23068798  0.90448396     1.58000
O94         O  0.83006778  0.22100170  0.89877345    -0.82400
H95         H  0.66135907  0.23164542  0.97762737    -0.06200
O96         O  0.72682413  0.28267474  0.05724389    -0.87700
H97         H  0.74707343  0.31684943  0.06520484    -0.06000
H98         H  0.71919940  0.19731161  0.09405889    -0.06200
C99         C  0.73588794  0.30362253  0.04312273     0.87400
C100        C  0.68348016  0.23870870  0.96685913     0.88000
C101        C  0.71991863  0.21716191  0.08360532     0.88000
H102        H  0.83582233  0.26372843  0.03799565    -0.06200
O103        O  0.80110065  0.26925938  0.94684780    -0.75200
Mg104      Mg  0.75225174  0.26624786  0.11079247     1.58000
H105        H  0.77716505  0.29990693  0.92379163    -0.06200
C106        C  0.65471991  0.32058199  0.99279430     0.93000
O107        O  0.66717349  0.27624146  0.11721400    -0.82400
C108        C  0.68074269  0.26964767  0.15230551     0.93100
O109        O  0.71845549  0.24678430  0.84799679    -0.82400
Mg110      Mg  0.81549948  0.22853643  0.96854569     1.58200
O111        O  0.66061506  0.30788076  0.02760665    -0.80700
O112        O  0.82600499  0.17975206  0.05790353    -0.82400
O113        O  0.80452434  0.76238613  0.01968389    -0.88000
C114        C  0.72277629  0.78336232  0.07416898     0.88000
Mg115      Mg  0.81559463  0.77150884  0.95343724     1.58100
O116        O  0.72692325  0.71807857  0.04626389    -0.87700
O117        O  0.79869853  0.72763600  0.05938039    -0.75100
C118        C  0.69075941  0.74218357  0.83969279     0.93100
O119        O  0.76461587  0.81359689  0.00162799    -0.74900
O120        O  0.71350111  0.75749065  0.84034538    -0.82400
Mg121      Mg  0.78789594  0.79350974  0.05964107     1.58000
C122        C  0.65301950  0.68179843  0.98399706     0.93000
O123        O  0.81184110  0.77845358  0.12198975    -0.80700
H124        H  0.74672204  0.68362146  0.05269610    -0.06000
C125        C  0.68295308  0.76422637  0.96062316     0.87900
O126        O  0.79915201  0.73172361  0.93066826    -0.75200
O127        O  0.74730576  0.77139459  0.07235749    -0.87900
O128        O  0.65859522  0.69448066  0.01888380    -0.80700
C129        C  0.68455970  0.73039875  0.14427899     0.93100
C130        C  0.80602576  0.76392539  0.15453202     0.93000
Mg131      Mg  0.70854618  0.71194884  0.93337125     1.58000
O132        O  0.68434111  0.72750177  0.87183675    -0.80700
O133        O  0.73214551  0.69180674  0.99117254    -0.74900
O134        O  0.71273101  0.73679185  0.14335064    -0.80700
O135        O  0.82994739  0.81767254  0.04469059    -0.82500
O136        O  0.78468862  0.76989962  0.84814690    -0.80800
C137        C  0.73541836  0.69723742  0.03132855     0.87400
O138        O  0.74935307  0.73420930  0.92062605    -0.87900
O139        O  0.69182494  0.74290145  0.97338209    -0.88000
O140        O  0.69882646  0.77797299  0.93467559    -0.75100
Mg141      Mg  0.75423902  0.73343941  0.09839750     1.58000
O142        O  0.66996967  0.72451903  0.10965091    -0.82400
H143        H  0.83586290  0.73432638  0.02093374    -0.06200
O144        O  0.77035170  0.78749499  0.94636394    -0.87700
H145        H  0.75071370  0.82201649  0.93990743    -0.06000
H146        H  0.77317109  0.70225746  0.90791380    -0.06200
C147        C  0.76180853  0.80831948  0.96134869     0.87400
C148        C  0.81417615  0.74147167  0.03313789     0.88000
C149        C  0.77369383  0.72199856  0.91879814     0.88000
H150        H  0.66158786  0.77180633  0.97321274    -0.06200
O151        O  0.69744003  0.77335934  0.06232589    -0.75200
Mg152      Mg  0.74299676  0.77233042  0.89468609     1.58000
H153        H  0.72300140  0.80310348  0.08508320    -0.06200
C154        C  0.84337883  0.82255381  0.00860105     0.93000
O155        O  0.82772853  0.78034498  0.88272003    -0.82400
C156        C  0.81306904  0.77592503  0.84746563     0.93100
O157        O  0.78355394  0.74830691  0.15373087    -0.82400
Mg158      Mg  0.68121384  0.73338635  0.03938649     1.58200
O159        O  0.83770102  0.80988849  0.97387614    -0.80700
O160        O  0.66642576  0.68709861  0.94800694    -0.82400
O161        O  0.30822407  0.74386697  0.97003524    -0.88000
C162        C  0.22621882  0.72254033  0.91710636     0.88000
Mg163      Mg  0.32014572  0.73496252  0.03576779     1.58100
O164        O  0.23037513  0.78776771  0.94458950    -0.87700
O165        O  0.30165899  0.77859725  0.93037720    -0.75100
C166        C  0.19662921  0.76412128  0.15440991     0.93100
O167        O  0.26876109  0.69297332  0.98942805    -0.74900
O168        O  0.21944577  0.74894123  0.15295111    -0.82400
Mg169      Mg  0.29167067  0.71279831  0.93072101     1.58000
C170        C  0.15860195  0.82397460  0.00842496     0.93000
O171        O  0.31549270  0.72867511  0.86910111    -0.80700
H172        H  0.25015586  0.82227651  0.93851207    -0.06000
C173        C  0.18779849  0.74143382  0.03213171     0.87900
O174        O  0.30377805  0.77501684  0.05788187    -0.75200
O175        O  0.25067523  0.73468716  0.91826037    -0.87900
O176        O  0.16457255  0.81202176  0.97297070    -0.80700
C177        C  0.18629204  0.77500997  0.84680291     0.93100
C178        C  0.30931670  0.74335451  0.83684952     0.93000
Mg179      Mg  0.21298915  0.79375550  0.05875972     1.58000
O180        O  0.18953166  0.77834163  0.12183710    -0.80700
O181        O  0.23581982  0.81383928  0.00006099    -0.74900
O182        O  0.21475644  0.76922485  0.84701967    -0.80700
O183        O  0.33399533  0.68828445  0.94511509    -0.82500
O184        O  0.29117161  0.73952594  0.14056300    -0.80800
C185        C  0.23896851  0.80854139  0.95979300     0.87400
O186        O  0.25415613  0.77224727  0.07034169    -0.87900
O187        O  0.19650921  0.76272532  0.01885276    -0.88000
O188        O  0.20379989  0.72796820  0.05840927    -0.75100
Mg189      Mg  0.25694480  0.77265637  0.89189313     1.58000
O190        O  0.17217740  0.78061315  0.88194077    -0.82400
H191        H  0.33918467  0.77224411  0.96825892    -0.06200
O192        O  0.27502466  0.71921666  0.04457740    -0.87700
H193        H  0.25517105  0.68478239  0.05139356    -0.06000
H194        H  0.27797734  0.80448411  0.08104299    -0.06200
C195        C  0.26621192  0.69839743  0.02973817     0.87400
C196        C  0.31749251  0.76488971  0.95640313     0.88000
C197        C  0.27845289  0.78464510  0.07067955     0.88000
H198        H  0.16640455  0.73368617  0.01990832    -0.06200
O199        O  0.20092115  0.73234546  0.92960425    -0.75200
Mg200      Mg  0.24850051  0.73445226  0.09711972     1.58000
H201        H  0.22650114  0.70279142  0.90624261    -0.06200
C202        C  0.34621615  0.68244880  0.98169144     0.93000
O203        O  0.33390370  0.72772297  0.10604797    -0.82400
C204        C  0.31990251  0.73480688  0.14048808     0.93100
O205        O  0.28599710  0.75804414  0.83662125    -0.82400
Mg206      Mg  0.18505791  0.77236482  0.95262624     1.58200
O207        O  0.34075463  0.69536924  0.01632184    -0.80700
O208        O  0.17049517  0.81763661  0.04491574    -0.82400
N209        N  0.99801429  0.21509663  0.44074656    -0.36300
N210        N  0.04583682  0.21228422  0.50659934    -0.56800
N211        N  0.99864483  0.21902651  0.57374835    -0.36300
N212        N  0.95051692  0.21904037  0.50818878    -0.56800
C213        C  0.02243437  0.20951190  0.41501711     0.27300
C214        C  0.97238546  0.21253551  0.41609567     0.27300
C215        C  0.02336608  0.21320994  0.59867672     0.27300
C216        C  0.97345613  0.21643156  0.59937369     0.27300
C217        C  0.06412856  0.21343669  0.47090910     0.35900
C218        C  0.06436531  0.21529440  0.54168552     0.35900
C219        C  0.93289364  0.22343210  0.47259608     0.35900
C220        C  0.93325187  0.22520110  0.54337741     0.35900
C221        C  0.01205193  0.20343538  0.37335781    -0.21600
C222        C  0.98058093  0.20513554  0.37416252    -0.21600
C223        C  0.01380676  0.20704055  0.64068138    -0.21600
C224        C  0.98235365  0.20889679  0.64104529    -0.21600
C225        C  0.09457577  0.21614594  0.48356945    -0.22600
C226        C  0.09469355  0.21747449  0.52840318    -0.22600
C227        C  0.90404829  0.23196237  0.48525093    -0.22600
C228        C  0.90431062  0.23315555  0.53015823    -0.22600
C229        C  0.05383902  0.21179493  0.42704017    -0.18000
C230        C  0.94205489  0.21893326  0.42893103    -0.18000
C231        C  0.94284311  0.22238785  0.58728375    -0.18000
C232        C  0.05448418  0.21501872  0.58566163    -0.18000
H233        H  0.02553782  0.19878440  0.34478036     0.14900
H234        H  0.96551876  0.20202389  0.34649912     0.14900
H235        H  0.02802530  0.20191150  0.66839979     0.14900
H236        H  0.96774166  0.20544815  0.66909937     0.14900
H237        H  0.11463210  0.21719437  0.46271169     0.13200
H238        H  0.11481604  0.21965450  0.54888063     0.13200
H239        H  0.88481213  0.23676626  0.46432550     0.13200
H240        H  0.88532684  0.23900187  0.55072082     0.13200
H241        H  0.99898418  0.22353051  0.47143719     0.26500
H242        H  0.99933497  0.22754821  0.54297218     0.26500
N243        N  0.00039427  0.76918610  0.43012901    -0.36300
N244        N  0.95303662  0.77294860  0.49763735    -0.56800
N245        N  0.00081821  0.77009841  0.56386876    -0.36300
N246        N  0.04820433  0.76941052  0.49607501    -0.56800
C247        C  0.97528982  0.77376683  0.40524946     0.27300
C248        C  0.02538090  0.77290180  0.40445939     0.27300
C249        C  0.97626997  0.77605787  0.58911476     0.27300
C250        C  0.02631879  0.77392242  0.58833091     0.27300
C251        C  0.93466880  0.76924922  0.46259052     0.35900
C252        C  0.93491927  0.77074128  0.53335947     0.35900
C253        C  0.06610055  0.76563360  0.46055748     0.35900
C254        C  0.06629331  0.76556441  0.53135940     0.35900
C255        C  0.98440629  0.78024290  0.36315819    -0.21600
C256        C  0.01597386  0.77972311  0.36267126    -0.21600
C257        C  0.98629764  0.78335908  0.63030092    -0.21600
C258        C  0.01782322  0.78200671  0.62982072    -0.21600
C259        C  0.90462751  0.76516154  0.47608685    -0.22600
C260        C  0.90477216  0.76621290  0.52095915    -0.22600
C261        C  0.09583121  0.75970012  0.47330988    -0.22600
C262        C  0.09595150  0.75963366  0.51822715    -0.22600
C263        C  0.94432648  0.77068047  0.41850634    -0.18000
C264        C  0.05638396  0.76887458  0.41682263    -0.18000
C265        C  0.05701340  0.76917834  0.57516258    -0.18000
C266        C  0.94497695  0.77383811  0.57694609    -0.18000
H267        H  0.96980760  0.78467080  0.33548205     0.14900
H268        H  0.03033889  0.78362628  0.33452619     0.14900
H269        H  0.97234695  0.78895504  0.65799150     0.14900
H270        H  0.03276863  0.78637557  0.65710723     0.14900
H271        H  0.88464287  0.76196907  0.45572745     0.13200
H272        H  0.88496484  0.76392795  0.54203141     0.13200
H273        H  0.11544111  0.75606955  0.45244435     0.13200
H274        H  0.11570884  0.75600878  0.53885206     0.13200
H275        H  0.00025355  0.76100551  0.46102402     0.26500
H276        H  0.00012365  0.76122226  0.53360813     0.26500
N277        N  0.50237789  0.74134039  0.56069580    -0.36300
N278        N  0.45363652  0.74006948  0.49496223    -0.56800
N279        N  0.50017038  0.73638879  0.42867524    -0.36300
N280        N  0.54868273  0.73560873  0.49391277    -0.56800
C281        C  0.47734363  0.73819700  0.58634264     0.27300
C282        C  0.52734396  0.73636315  0.58574447     0.27300
C283        C  0.47461605  0.73123517  0.40514433     0.27300
C284        C  0.52443486  0.72870108  0.40451225     0.27300
C285        C  0.43670696  0.74617978  0.53033959     0.35900
C286        C  0.43571803  0.74447207  0.45967315     0.35900
C287        C  0.56753479  0.73979593  0.52815907     0.35900
C288        C  0.56621833  0.73750778  0.45773420     0.35900
C289        C  0.48652719  0.73154510  0.62831802    -0.21600
C290        C  0.51801161  0.73052828  0.62800922    -0.21600
C291        C  0.48274598  0.71992522  0.36577450    -0.21600
C292        C  0.51424864  0.71843252  0.36529779    -0.21600
C293        C  0.40763175  0.75414050  0.51760878    -0.22600
C294        C  0.40710557  0.75329418  0.47263924    -0.22600
C295        C  0.59737839  0.74378065  0.51375596    -0.22600
C296        C  0.59649852  0.74251020  0.46894416    -0.22600
C297        C  0.44653711  0.74288466  0.57392005    -0.18000
C298        C  0.55836030  0.73847251  0.57226390    -0.18000
C299        C  0.55553174  0.73311328  0.41500793    -0.18000
C300        C  0.44448736  0.73885823  0.41633493    -0.18000
H301        H  0.47209534  0.72821494  0.65659688     0.14900
H302        H  0.53227589  0.72628441  0.65607815     0.14900
H303        H  0.46758063  0.71399173  0.33960506     0.14900
H304        H  0.52812182  0.71116144  0.33868400     0.14900
H305        H  0.38876627  0.75980671  0.53853971     0.13200
H306        H  0.38773042  0.75806401  0.45196035     0.13200
H307        H  0.61766893  0.74708338  0.53343515     0.13200
H308        H  0.61597279  0.74457327  0.44718875     0.13200
H309        H  0.50250219  0.74927773  0.52960837     0.26500
H310        H  0.50129685  0.74797743  0.45618425     0.26500
N311        N  0.49933348  0.27255876  0.44184697    -0.36300
N312        N  0.45302891  0.27272837  0.51004523    -0.56800
N313        N  0.50207109  0.26821461  0.57509811    -0.36300
N314        N  0.54839746  0.27099211  0.50661816    -0.56800
C315        C  0.47392666  0.27731433  0.41766500     0.27300
C316        C  0.52399400  0.27724242  0.41616012     0.27300
C317        C  0.47772581  0.27292615  0.60138343     0.27300
C318        C  0.52778462  0.27119869  0.59946790     0.27300
C319        C  0.43431419  0.26951068  0.47515924     0.35900
C320        C  0.43572906  0.26849731  0.54604802     0.35900
C321        C  0.56564575  0.26828122  0.47024969     0.35900
C322        C  0.56705225  0.26578862  0.54075955     0.35900
C323        C  0.48261585  0.28492602  0.37592525    -0.21600
C324        C  0.51414083  0.28506527  0.37508712    -0.21600
C325        C  0.48815341  0.27861866  0.64316961    -0.21600
C326        C  0.51966559  0.27737184  0.64201384    -0.21600
C327        C  0.40481545  0.26366627  0.48907425    -0.22600
C328        C  0.40571377  0.26300167  0.53401257    -0.22600
C329        C  0.59554839  0.26177542  0.48133401    -0.22600
C330        C  0.59646923  0.26028579  0.52611810    -0.22600
C331        C  0.44317811  0.27306085  0.43105021    -0.18000
C332        C  0.55507205  0.27255274  0.42725216    -0.18000
C333        C  0.55837554  0.26746549  0.58505594    -0.18000
C334        C  0.44629783  0.27075173  0.58965536    -0.18000
H335        H  0.46787027  0.28949163  0.34850568     0.14900
H336        H  0.52820265  0.28978621  0.34698809     0.14900
H337        H  0.47449065  0.28299780  0.67177043     0.14900
H338        H  0.53484716  0.28061309  0.66949602     0.14900
H339        H  0.38471636  0.26039138  0.46898418     0.13200
H340        H  0.38645329  0.25903396  0.55539030     0.13200
H341        H  0.61473349  0.25861226  0.45947380     0.13200
H342        H  0.61651378  0.25578717  0.54565870     0.13200
H343        H  0.49977754  0.26330432  0.47203412     0.26500
H344        H  0.50109186  0.26060651  0.54368928     0.26500
C345        C  0.42200841  0.74145464  0.38002908    -0.11600
C346        C  0.39797970  0.72365926  0.37392269     0.03800
C347        C  0.38071115  0.72431350  0.33532058    -0.12200
C348        C  0.38746213  0.74218173  0.30226296     0.18700
C349        C  0.41101977  0.76025866  0.30869075    -0.09200
C350        C  0.42783135  0.75997810  0.34757271    -0.02200
H351        H  0.36272074  0.71022342  0.33030912     0.05200
C352        C  0.37085029  0.74072064  0.26034576     0.20700
H353        H  0.44666869  0.77339585  0.35160319     0.10400
C354        C  0.34714542  0.75817165  0.25159929    -0.15600
C355        C  0.33074529  0.75698420  0.21231070     0.03400
C356        C  0.33746276  0.73750170  0.18159917    -0.10900
C357        C  0.36198214  0.72063508  0.18994881    -0.00900
C358        C  0.37877620  0.72226570  0.22880270    -0.06100
H359        H  0.34170645  0.77298893  0.27518593     0.06400
H360        H  0.36803952  0.70603896  0.16627525     0.09800
Br361      Br  0.42270009  0.78416367  0.26382186    -0.05800
Br362      Br  0.38966646  0.69682127  0.41536867    -0.02700
Br363      Br  0.30163593  0.78393536  0.20090243     0.00100
Br364      Br  0.41303510  0.69954264  0.23692312    -0.04200
C365        C  0.32936667  0.74318346  0.79799335    -0.11600
C366        C  0.36158877  0.74040015  0.80119400     0.03800
C367        C  0.37947809  0.74036132  0.76324231    -0.12200
C368        C  0.36581728  0.74356863  0.72213762     0.18700
C369        C  0.33389849  0.74687498  0.71884179    -0.09200
C370        C  0.31590835  0.74661657  0.75659705    -0.02200
H371        H  0.40420460  0.73833242  0.76579428     0.05200
C372        C  0.38529464  0.74390916  0.68297407     0.20700
H373        H  0.29126536  0.74905153  0.75354687     0.10400
C374        C  0.39003195  0.72100491  0.66001344    -0.15600
C375        C  0.40899869  0.72061994  0.62322151     0.03400
C376        C  0.42331437  0.74342085  0.60909276    -0.10900
C377        C  0.41824559  0.76639726  0.63174239    -0.00900
C378        C  0.39931773  0.76676228  0.66859744    -0.06100
H379        H  0.37931071  0.70337099  0.67115151     0.06400
H380        H  0.42963832  0.78388182  0.62131078     0.09800
Br381      Br  0.31418165  0.75229161  0.66346285    -0.05800
Br382      Br  0.38279329  0.73904462  0.85620349    -0.02700
Br383      Br  0.41608625  0.68844034  0.59449727     0.00100
Br384      Br  0.39361328  0.79862523  0.69889442    -0.04200
C385        C  0.17767647  0.76523047  0.19490538    -0.11600
C386        C  0.18965507  0.75886790  0.23672455     0.03800
C387        C  0.17063099  0.75973848  0.27362871    -0.12200
C388        C  0.13978185  0.76700783  0.27006457     0.18700
C389        C  0.12787935  0.77383389  0.22890677    -0.09200
C390        C  0.14672916  0.77291751  0.19182818    -0.02200
H391        H  0.17996169  0.75474225  0.30538648     0.05200
C392        C  0.12011491  0.76693937  0.30946944     0.20700
H393        H  0.13696813  0.77794553  0.16035992     0.10400
C394        C  0.11609282  0.78971798  0.33321625    -0.15600
C395        C  0.09617906  0.79045982  0.36918196     0.03400
C396        C  0.07987466  0.76821795  0.38155650    -0.10900
C397        C  0.08451316  0.74530540  0.35846873    -0.00900
C398        C  0.10461023  0.74450694  0.32278900    -0.06100
H399        H  0.12808662  0.80702091  0.32329327     0.06400
H400        H  0.07206960  0.72812123  0.36785173     0.09800
Br401      Br  0.08585129  0.78421958  0.22197923    -0.05800
Br402      Br  0.23195796  0.75008874  0.24686788    -0.02700
Br403      Br  0.09106991  0.82231212  0.39968996     0.00100
Br404      Br  0.10969008  0.71259941  0.29242927    -0.04200
C405        C  0.16945673  0.77462892  0.80440327    -0.11600
C406        C  0.14116099  0.78756248  0.79792933     0.03800
C407        C  0.12599845  0.78568997  0.75774785    -0.12200
C408        C  0.13832329  0.77127126  0.72336045     0.18700
C409        C  0.16684928  0.75902862  0.72897919    -0.09200
C410        C  0.18206508  0.76068917  0.76920041    -0.02200
H411        H  0.10424597  0.79550116  0.75329694     0.05200
C412        C  0.12070787  0.76950780  0.68215485     0.20700
H413        H  0.20380786  0.75079112  0.77294786     0.10400
C414        C  0.11627381  0.79184822  0.65713264    -0.15600
C415        C  0.09646616  0.79178677  0.62114594     0.03400
C416        C  0.08093001  0.76908685  0.60965263    -0.10900
C417        C  0.08593361  0.74657567  0.63384508    -0.00900
C418        C  0.10549119  0.74666946  0.67012969    -0.06100
H419        H  0.12745688  0.80959226  0.66657191     0.06400
H420        H  0.07359600  0.72917889  0.62549954     0.09800
Br421      Br  0.18621108  0.74038157  0.68242439    -0.05800
Br422      Br  0.12209455  0.80900137  0.84120848    -0.02700
Br423      Br  0.08947628  0.82343180  0.59042912     0.00100
Br424      Br  0.10840462  0.71583949  0.70442868    -0.04200
C425        C  0.67217863  0.74096175  0.79945042    -0.11600
C426        C  0.64012518  0.73675003  0.79996659     0.03800
C427        C  0.62394634  0.73579521  0.76050793    -0.12200
C428        C  0.63916667  0.73903640  0.72045594     0.18700
C429        C  0.67098874  0.74347229  0.71988141    -0.09200
C430        C  0.68720488  0.74432273  0.75915894    -0.02200
H431        H  0.59929647  0.73279638  0.76100837     0.05200
C432        C  0.62120459  0.73829842  0.67975240     0.20700
H433        H  0.71180918  0.74732233  0.75813403     0.10400
C434        C  0.61479485  0.76137214  0.65783590    -0.15600
C435        C  0.59524848  0.76163666  0.62161336     0.03400
C436        C  0.58233301  0.73849161  0.60659241    -0.10900
C437        C  0.58999464  0.71526554  0.62721218    -0.00900
C438        C  0.60891412  0.71508298  0.66406725    -0.06100
H439        H  0.62413906  0.77929898  0.66992977     0.06400
H440        H  0.57997560  0.69742929  0.61584414     0.09800
Br441      Br  0.69334113  0.74796156  0.66632390    -0.05800
Br442      Br  0.61683974  0.73385348  0.85310389    -0.02700
Br443      Br  0.58544493  0.79407092  0.59515229     0.00100
Br444      Br  0.61643571  0.68291967  0.69292039    -0.04200
C445        C  0.66794323  0.73029586  0.18645906    -0.11600
C446        C  0.68308869  0.72971088  0.22755012     0.03800
C447        C  0.66578274  0.73027879  0.26599838    -0.12200
C448        C  0.63367490  0.73121492  0.26445761     0.18700
C449        C  0.61856110  0.73163951  0.22388226    -0.09200
C450        C  0.63565532  0.73115266  0.18545194    -0.02200
H451        H  0.67739895  0.72992832  0.29734855     0.05200
C452        C  0.61610479  0.73207813  0.30538352     0.20700
H453        H  0.62346768  0.73167627  0.15457097     0.10400
C454        C  0.59977527  0.75448265  0.31548238    -0.15600
C455        C  0.58049209  0.75522603  0.35178208     0.03400
C456        C  0.57781963  0.73344310  0.37878357    -0.10900
C457        C  0.59504565  0.71136071  0.36978361    -0.00900
C458        C  0.61416014  0.71052480  0.33316566    -0.06100
H459        H  0.60139260  0.77115605  0.29430818     0.06400
H460        H  0.59285838  0.69455761  0.39053527     0.09800
Br461      Br  0.57455202  0.73236298  0.21915078    -0.05800
Br462      Br  0.72690358  0.72718851  0.23460346    -0.02700
Br463      Br  0.55751166  0.78602248  0.36261439     0.00100
Br464      Br  0.63559669  0.67914899  0.32094164    -0.04200
C465        C  0.82979054  0.77762555  0.80486636    -0.11600
C466        C  0.81475136  0.77769316  0.76357758     0.03800
C467        C  0.83210851  0.77802941  0.72491693    -0.12200
C468        C  0.86425452  0.77858475  0.72624450     0.18700
C469        C  0.87922799  0.77977073  0.76687961    -0.09200
C470        C  0.86212646  0.77918146  0.80554396    -0.02200
H471        H  0.82047583  0.77752287  0.69359635     0.05200
C472        C  0.88214592  0.77674179  0.68527567     0.20700
H473        H  0.87440913  0.77960596  0.83633834     0.10400
C474        C  0.88691869  0.79874674  0.65955034    -0.15600
C475        C  0.90663850  0.79795857  0.62333201     0.03400
C476        C  0.92159329  0.77486062  0.61233840    -0.10900
C477        C  0.91596932  0.75269407  0.63721321    -0.00900
C478        C  0.89637961  0.75348705  0.67341761    -0.06100
H479        H  0.87616357  0.81673503  0.66858144     0.06400
H480        H  0.92745325  0.73488209  0.62900598     0.09800
Br481      Br  0.92317775  0.78203979  0.77095967    -0.05800
Br482      Br  0.77087089  0.77805842  0.75650855    -0.02700
Br483      Br  0.91407557  0.82906513  0.59130380     0.00100
Br484      Br  0.89037601  0.72258057  0.70669123    -0.04200
C485        C  0.92088043  0.76855154  0.38350882    -0.11600
C486        C  0.90198815  0.78943266  0.37201686     0.03800
C487        C  0.88201602  0.78732266  0.33641589    -0.12200
C488        C  0.88093323  0.76474675  0.31146920     0.18700
C489        C  0.90002198  0.74389962  0.32284578    -0.09200
C490        C  0.91951774  0.74584404  0.35899764    -0.02200
H491        H  0.86785303  0.80361027  0.32736820     0.05200
C492        C  0.86162452  0.76429747  0.27174584     0.20700
H493        H  0.93454139  0.72993362  0.36713484     0.10400
C494        C  0.86907035  0.78078873  0.23708788    -0.15600
C495        C  0.85132929  0.78151662  0.19895421     0.03400
C496        C  0.82560226  0.76492403  0.19459132    -0.10900
C497        C  0.81808547  0.74870166  0.23008623    -0.00900
C498        C  0.83552762  0.74853137  0.26846917    -0.06100
H499        H  0.88884732  0.79335010  0.23989151     0.06400
H500        H  0.79830114  0.73613443  0.22838655     0.09800
Br501      Br  0.90227418  0.71329930  0.28810428    -0.05800
Br502      Br  0.90427017  0.82166759  0.40205748    -0.02700
Br503      Br  0.86384726  0.80622640  0.15561305     0.00100
Br504      Br  0.82191818  0.72741248  0.31627603    -0.04200
C505        C  0.66328064  0.26926027  0.19353582    -0.11600
C506        C  0.66804073  0.24991735  0.22520857     0.03800
C507        C  0.65211323  0.25079558  0.26477345    -0.12200
C508        C  0.63021900  0.26997204  0.27265982     0.18700
C509        C  0.62456137  0.28876018  0.24036420    -0.09200
C510        C  0.64127692  0.28841881  0.20135015    -0.02200
H511        H  0.65618280  0.23599737  0.28907698     0.05200
C512        C  0.61284022  0.26956475  0.31411679     0.20700
H513        H  0.63698600  0.30313049  0.17697056     0.10400
C514        C  0.61516713  0.29048626  0.34284810    -0.15600
C515        C  0.59736608  0.29144829  0.38085321     0.03400
C516        C  0.57734804  0.27102348  0.39078282    -0.10900
C517        C  0.57607768  0.24961473  0.36318499    -0.00900
C518        C  0.59348869  0.24877067  0.32495168    -0.06100
H519        H  0.63026405  0.30640926  0.33503264     0.06400
H520        H  0.56049946  0.23395066  0.37062839     0.09800
Br521      Br  0.59313827  0.31437126  0.24685530    -0.05800
Br522      Br  0.69326678  0.22033007  0.21443523    -0.02700
Br523      Br  0.59975894  0.32149976  0.41685673     0.00100
Br524      Br  0.58812010  0.21964553  0.28730864    -0.04200
C525        C  0.67692237  0.26292637  0.80690456    -0.11600
C526        C  0.64453263  0.26383630  0.80785661     0.03800
C527        C  0.62806749  0.26448858  0.76867431    -0.12200
C528        C  0.64332896  0.26404293  0.72835903     0.18700
C529        C  0.67557200  0.26304112  0.72717946    -0.09200
C530        C  0.69213457  0.26238996  0.76633268    -0.02200
H531        H  0.60316937  0.26492559  0.76958194     0.05200
C532        C  0.62481862  0.26420186  0.68813916     0.20700
H533        H  0.71700732  0.26154953  0.76508314     0.10400
C534        C  0.61853595  0.28768417  0.66750828    -0.15600
C535        C  0.59773959  0.28887835  0.63275220     0.03400
C536        C  0.58286651  0.26637388  0.61860322    -0.10900
C537        C  0.59004687  0.24274091  0.63814626    -0.00900
C538        C  0.61100678  0.24152625  0.67270879    -0.06100
H539        H  0.62909202  0.30518690  0.67937812     0.06400
H540        H  0.57879712  0.22535302  0.62710889     0.09800
Br541      Br  0.69769573  0.26203873  0.67296744    -0.05800
Br542      Br  0.62143309  0.26199422  0.86124139    -0.02700
Br543      Br  0.58903221  0.32167886  0.60688230     0.00100
Br544      Br  0.61963610  0.20873996  0.69874564    -0.04200
C545        C  0.91887222  0.22183634  0.39372462    -0.11600
C546        C  0.90016862  0.20114670  0.38076845     0.03800
C547        C  0.88063708  0.20389144  0.34471721    -0.12200
C548        C  0.87976972  0.22700438  0.32106659     0.18700
C549        C  0.89807299  0.24783312  0.33452428    -0.09200
C550        C  0.91748040  0.24512265  0.37065694     0.06600
H551        H  0.86660006  0.18779499  0.33447376     0.05200
C552        C  0.86007576  0.22883868  0.28193632     0.20700
H553        H  0.93201706  0.26103397  0.38031942     0.10400
C554        C  0.82858134  0.23331344  0.28707663    -0.15600
C555        C  0.80918813  0.23508736  0.25069887     0.03400
C556        C  0.82131862  0.23203727  0.20808296    -0.10900
C557        C  0.85293152  0.22717931  0.20326623    -0.00900
C558        C  0.87229711  0.22575737  0.23971404    -0.06100
H559        H  0.81905951  0.23543834  0.31961004     0.06400
H560        H  0.86273757  0.22485412  0.17095428     0.09800
Br561      Br  0.89757694  0.28010315  0.30410735    -0.05800
Br562      Br  0.90177666  0.16857875  0.41011470    -0.02700
Br563      Br  0.76631550  0.24039511  0.26205584     0.00100
Br564      Br  0.91527612  0.21950489  0.23049700    -0.04200
C565        C  0.92005235  0.22554678  0.62322622    -0.11600
C566        C  0.89764838  0.20666103  0.63205980     0.03800
C567        C  0.87979799  0.20832262  0.67004415    -0.12200
C568        C  0.88409226  0.22849982  0.69975360     0.18700
C569        C  0.90609761  0.24759670  0.69061966    -0.09200
C570        C  0.92362920  0.24615438  0.65237519    -0.02200
H571        H  0.86311166  0.19342130  0.67710954     0.05200
C572        C  0.86685756  0.22836398  0.74139768     0.20700
H573        H  0.94118136  0.26050238  0.64631417     0.10400
C574        C  0.87549296  0.21105995  0.77436785    -0.15600
C575        C  0.85986836  0.21030315  0.81438221     0.03400
C576        C  0.83478061  0.22707084  0.82173657    -0.10900
C577        C  0.82614960  0.24424998  0.78831181    -0.00900
C578        C  0.84198748  0.24505449  0.74855218    -0.06100
H579        H  0.89453452  0.19804544  0.76887132     0.06400
H580        H  0.80707882  0.25731266  0.79318890     0.09800
Br581      Br  0.91460816  0.27481637  0.73105994    -0.05800
Br582      Br  0.89223913  0.17729260  0.59507874    -0.02700
Br583      Br  0.87316681  0.18500069  0.85619784     0.00100
Br584      Br  0.82856980  0.26897135  0.70471358    -0.04200
C585        C  0.32346861  0.26852518  0.80945938    -0.11600
C586        C  0.31240209  0.26510777  0.76636352     0.03800
C587        C  0.33267730  0.26664220  0.73099773    -0.12200
C588        C  0.36391125  0.27173215  0.73755029     0.18700
C589        C  0.37482693  0.27630614  0.78011662    -0.09200
C590        C  0.35465965  0.27467059  0.81560945    -0.02200
H591        H  0.32409290  0.26361335  0.69814289     0.05200
C592        C  0.38476072  0.27132375  0.69955425     0.20700
H593        H  0.36359259  0.27770681  0.84826279     0.10400
C594        C  0.38483104  0.29205635  0.67018773    -0.15600
C595        C  0.40408475  0.29193425  0.63352542     0.03400
C596        C  0.42341183  0.27069227  0.62576955    -0.10900
C597        C  0.42276488  0.24973503  0.65472909    -0.00900
C598        C  0.40363963  0.24992493  0.69141142    -0.06100
H599        H  0.37009715  0.30846221  0.67608741     0.06400
H600        H  0.43758092  0.23335273  0.64905157     0.09800
Br601      Br  0.41703244  0.28475730  0.79126472    -0.05800
Br602      Br  0.26982876  0.25980677  0.75289593    -0.02700
Br603      Br  0.40398435  0.32148194  0.59589612     0.00100
Br604      Br  0.40370439  0.22046071  0.72926394    -0.04200
C605        C  0.33497197  0.26514549  0.19745505    -0.11600
C606        C  0.36738780  0.26293591  0.19998155     0.03800
C607        C  0.38204625  0.26383083  0.24072671    -0.12200
C608        C  0.36514547  0.26661723  0.27941710     0.18700
C609        C  0.33296700  0.26824357  0.27727221    -0.09200
C610        C  0.31818356  0.26749680  0.23666133    -0.02200
H611        H  0.40685806  0.26222565  0.24231956     0.05200
C612        C  0.38176662  0.26791641  0.32151549     0.20700
H613        H  0.29337121  0.26910301  0.23583593     0.10400
C614        C  0.38845663  0.29199878  0.33970445    -0.15600
C615        C  0.40719152  0.29399534  0.37678537     0.03400
C616        C  0.41938634  0.27164209  0.39622599    -0.10900
C617        C  0.41171141  0.24753091  0.37897886    -0.00900
C618        C  0.39310127  0.24555041  0.34181891    -0.06100
H619        H  0.37999358  0.30930730  0.32406938     0.06400
H620        H  0.42119106  0.23026697  0.39353382     0.09800
Br621      Br  0.30833527  0.27121746  0.32900015    -0.05800
Br622      Br  0.39318338  0.25727015  0.14995407    -0.02700
Br623      Br  0.41748541  0.32757880  0.39792057     0.00100
Br624      Br  0.38462208  0.21204230  0.31884147    -0.04200
C625        C  0.16532932  0.22531161  0.81695930    -0.11600
C626        C  0.17971872  0.21754811  0.77764331     0.03800
C627        C  0.16296525  0.21693449  0.73857476    -0.12200
C628        C  0.13170762  0.22331127  0.73782786     0.18700
C629        C  0.11687983  0.22977998  0.77724947    -0.09200
C630        C  0.13373117  0.23098052  0.81622038    -0.02200
H631        H  0.17425552  0.21099552  0.70868015     0.05200
C632        C  0.11456583  0.22170466  0.69611303     0.20700
H633        H  0.12202236  0.23630826  0.84611114     0.10400
C634        C  0.10948917  0.19753223  0.67712061    -0.15600
C635        C  0.09129649  0.19511572  0.63960621     0.03400
C636        C  0.07777264  0.21707190  0.62087970    -0.10900
C637        C  0.08409265  0.24134169  0.63848922    -0.00900
C638        C  0.10265152  0.24382748  0.67555575    -0.06100
H639        H  0.11900130  0.18044924  0.69223663     0.06400
H640        H  0.07400429  0.25833664  0.62383767     0.09800
Br641      Br  0.07336347  0.23576814  0.77982264    -0.05800
Br642      Br  0.22112467  0.20490429  0.77562608    -0.02700
Br643      Br  0.08421993  0.16153484  0.61602391     0.00100
Br644      Br  0.11123426  0.27775283  0.69671754    -0.04200
C645        C  0.17549276  0.22776735  0.20624267    -0.11600
C646        C  0.18675068  0.23111736  0.24931937     0.03800
C647        C  0.16708038  0.22757446  0.28508401    -0.12200
C648        C  0.13606633  0.22117740  0.27907712     0.18700
C649        C  0.12445137  0.21899620  0.23627098    -0.09200
C650        C  0.14422470  0.22171656  0.20045975    -0.02200
H651        H  0.17605663  0.22978562  0.31791720     0.05200
C652        C  0.11607129  0.21798407  0.31794194     0.20700
H653        H  0.13486115  0.21976441  0.16780409     0.10400
C654        C  0.11018282  0.23938695  0.34440938    -0.15600
C655        C  0.09060947  0.23748163  0.38053197     0.03400
C656        C  0.07698894  0.21370011  0.39125653    -0.10900
C657        C  0.08407252  0.19198580  0.36605118    -0.00900
C658        C  0.10314040  0.19401496  0.32930733    -0.06100
H659        H  0.12028400  0.25782009  0.33626770     0.06400
H660        H  0.07391889  0.17358258  0.37423901     0.09800
Br661      Br  0.08143001  0.21410045  0.22497832    -0.05800
Br662      Br  0.22875693  0.23963808  0.26225944    -0.02700
Br663      Br  0.08238341  0.26809719  0.41338840     0.00100
Br664      Br  0.11079540  0.16354864  0.29581030    -0.04200
C665        C  0.96274422  0.04633029  0.99269647    -0.11600
C666        C  0.94031172  0.05172038  0.96045171     0.03800
C667        C  0.92069504  0.07288102  0.96530571    -0.12200
C668        C  0.92298916  0.08900841  0.00183802     0.18700
C669        C  0.94565663  0.08396452  0.03353261    -0.09200
C670        C  0.96510400  0.06273351  0.02895621    -0.02200
H671        H  0.90344621  0.07672095  0.94057841     0.05200
C672        C  0.90139056  0.11084345  0.00663637     0.20700
H673        H  0.98172091  0.05870689  0.05442383     0.10400
C674        C  0.87801018  0.10958617  0.03817050    -0.15600
C675        C  0.85730366  0.12996584  0.04380381     0.03400
C676        C  0.85985057  0.15227022  0.01742183    -0.10900
C677        C  0.88321613  0.15321113  0.98557719    -0.00900
C678        C  0.90384015  0.13285518  0.98015285    -0.06100
H679        H  0.87577511  0.09254764  0.05835768     0.06400
H680        H  0.88580351  0.17006524  0.96504527     0.09800
Br681      Br  0.95112356  0.10576499  0.08337535    -0.05800
Br682      Br  0.93577724  0.03126875  0.90868900    -0.02700
Br683      Br  0.82531394  0.12526951  0.08637439     0.00100
Br684      Br  0.93569315  0.13633648  0.93716350    -0.04200
C685        C  0.03232763  0.04746658  0.99886267    -0.11600
C686        C  0.03666164  0.06429575  0.96325110     0.03800
C687        C  0.05650245  0.08536467  0.96747343    -0.12200
C688        C  0.07276599  0.08965149  0.00650954     0.18700
C689        C  0.06817039  0.07287767  0.04215518    -0.09200
C690        C  0.04803330  0.05211927  0.03812466    -0.02200
H691        H  0.05986454  0.09812078  0.93983289     0.05200
C692        C  0.09465848  0.11145352  0.00926856     0.20700
H693        H  0.04523778  0.03902522  0.06545258     0.10400
C694        C  0.08918516  0.13126099  0.03934361    -0.15600
C695        C  0.10948719  0.15202678  0.04301265     0.03400
C696        C  0.13535365  0.15360538  0.01533951    -0.10900
C697        C  0.14065588  0.13396973  0.98493855    -0.00900
C698        C  0.12089509  0.11278649  0.98226039    -0.06100
H699        H  0.06903320  0.13051753  0.06012783     0.06400
H700        H  0.16072542  0.13478505  0.96399832     0.09800
Br701      Br  0.09043869  0.07625337  0.09599498    -0.05800
Br702      Br  0.01810637  0.05821526  0.90736938    -0.02700
Br703      Br  0.10015510  0.17818675  0.08509184     0.00100
Br704      Br  0.13179030  0.08546116  0.94319925    -0.04200
C705        C  0.03477708  0.95263615  0.00251081    -0.11600
C706        C  0.05144299  0.94701456  0.04091209     0.03800
C707        C  0.07124467  0.92578975  0.04210635    -0.12200
C708        C  0.07448104  0.90981789  0.00552033     0.18700
C709        C  0.05670282  0.91472102  0.96793669    -0.09200
C710        C  0.03720014  0.93609533  0.96653674    -0.02200
H711        H  0.08431550  0.92182661  0.07151251     0.05200
C712        C  0.09652050  0.88815758  0.00689526     0.20700
H713        H  0.02427370  0.94007596  0.93701889     0.10400
C714        C  0.08757985  0.86481764  0.02602355    -0.15600
C715        C  0.10761946  0.84375671  0.02667176     0.03400
C716        C  0.13694138  0.84576140  0.00745254    -0.10900
C717        C  0.14599403  0.86916651  0.98854746    -0.00900
C718        C  0.12614823  0.89039649  0.98862971    -0.06100
H719        H  0.06488147  0.86295271  0.04025514     0.06400
H720        H  0.16871814  0.87105207  0.97439909     0.09800
Br721      Br  0.05838114  0.89264679  0.91790189    -0.05800
Br722      Br  0.04713575  0.96739168  0.09275715    -0.02700
Br723      Br  0.09378358  0.81237510  0.05314477     0.00100
Br724      Br  0.14055988  0.92228099  0.96456277    -0.04200
C725        C  0.86600178  0.84377243  0.00708348    -0.11600
C726        C  0.89296252  0.84258436  0.98132892     0.03800
C727        C  0.91361357  0.86319773  0.98133145    -0.12200
C728        C  0.90785675  0.88524595  0.00623726     0.18700
C729        C  0.88071962  0.88667773  0.03123879    -0.09200
C730        C  0.86039236  0.86588259  0.03207757    -0.02200
H731        H  0.93428278  0.86207893  0.96165363     0.05200
C732        C  0.92937468  0.90716907  0.00330686     0.20700
H733        H  0.83959146  0.86732254  0.05139826     0.10400
C734        C  0.93277033  0.91982461  0.96303795    -0.15600
C735        C  0.95140984  0.94157216  0.95934150     0.03400
C736        C  0.96661659  0.95116467  0.99643739    -0.10900
C737        C  0.96447129  0.93784294  0.03625062    -0.00900
C738        C  0.94634064  0.91573079  0.03976169    -0.06100
H739        H  0.92054719  0.91293534  0.93450695     0.06400
H740        H  0.97670761  0.94481380  0.06470813     0.09800
Br741      Br  0.86923865  0.91722304  0.06229565    -0.05800
Br742      Br  0.90371753  0.81314618  0.94680341    -0.02700
Br743      Br  0.95616812  0.95720126  0.90288870     0.00100
Br744      Br  0.94620001  0.89748189  0.09438743    -0.04200
C745        C  0.63238538  0.34234531  0.99532294    -0.11600
C746        C  0.61184789  0.34849375  0.96097276     0.03800
C747        C  0.59160347  0.36937681  0.96507742    -0.12200
C748        C  0.59163640  0.38498250  0.00254383     0.18700
C749        C  0.61160768  0.37849041  0.03724089    -0.09200
C750        C  0.63138186  0.35729602  0.03356906    -0.02200
H751        H  0.57598882  0.37372987  0.93846867     0.05200
C752        C  0.57173481  0.40842687  0.00394233     0.20700
H753        H  0.64679907  0.35296128  0.06041412     0.10400
C754        C  0.54993186  0.41154441  0.03749955    -0.15600
C755        C  0.53218591  0.43403864  0.04070924     0.03400
C756        C  0.53451560  0.45335882  0.00827180    -0.10900
C757        C  0.55645574  0.45021500  0.97496310    -0.00900
C758        C  0.57507618  0.42830498  0.97283730    -0.06100
H759        H  0.54743627  0.39675713  0.06223348     0.06400
H760        H  0.55923903  0.46505179  0.95036240     0.09800
Br761      Br  0.61444399  0.39887032  0.08930321    -0.05800
Br762      Br  0.60932889  0.32869203  0.90826766    -0.02700
Br763      Br  0.50841979  0.43859856  0.09291254     0.00100
Br764      Br  0.60611079  0.42740539  0.92827165    -0.04200
C765        C  0.46448417  0.45267511  0.00474691    -0.11600
C766        C  0.46580016  0.43581587  0.96872002     0.03800
C767        C  0.44760342  0.41350949  0.96812099    -0.12200
C768        C  0.42702033  0.40792230  0.00233026     0.18700
C769        C  0.42538119  0.42502156  0.03800716    -0.09200
C770        C  0.44367111  0.44720057  0.03867030    -0.02200
H771        H  0.44892199  0.40078516  0.94021273     0.05200
C772        C  0.40655687  0.38489238  0.99967052     0.20700
H773        H  0.44176258  0.46026945  0.06605603     0.10400
C774        C  0.40828057  0.36577565  0.03204645    -0.15600
C775        C  0.38787343  0.34484954  0.03259893     0.03400
C776        C  0.36527510  0.34225337  0.99937542    -0.10900
C777        C  0.36438343  0.36111323  0.96619664    -0.00900
C778        C  0.38447321  0.38221264  0.96624543    -0.06100
H779        H  0.42540914  0.36738194  0.05762151     0.06400
H780        H  0.34746502  0.35982806  0.94031207     0.09800
Br781      Br  0.39756157  0.41965134  0.08589941    -0.05800
Br782      Br  0.48948521  0.44370537  0.91753115    -0.02700
Br783      Br  0.39292363  0.32078902  0.07979456     0.00100
Br784      Br  0.37949982  0.40757649  0.92110176    -0.04200
C785        C  0.36659541  0.65954823  0.98463345    -0.11600
C786        C  0.38736387  0.65280251  0.95103048     0.03800
C787        C  0.40555644  0.63069261  0.95507528    -0.12200
C788        C  0.40322612  0.61456005  0.99179938     0.18700
C789        C  0.38239714  0.62120075  0.02529328    -0.09200
C790        C  0.36465244  0.64360144  0.02171519    -0.02200
H791        H  0.42179417  0.62609873  0.92939885     0.05200
C792        C  0.42320667  0.59133871  0.99483039     0.20700
H793        H  0.34859174  0.64820289  0.04761203     0.10400
C794        C  0.44391315  0.58881309  0.02985356    -0.15600
C795        C  0.46280543  0.56710522  0.03397661     0.03400
C796        C  0.46270601  0.54805669  0.00121388    -0.10900
C797        C  0.44177937  0.55051318  0.96638524    -0.00900
C798        C  0.42195804  0.57165489  0.96325424    -0.06100
H799        H  0.44477669  0.60351025  0.05484001     0.06400
H800        H  0.44051376  0.53561410  0.94176976     0.09800
Br801      Br  0.37594279  0.59962471  0.07545470    -0.05800
Br802      Br  0.39326986  0.67354902  0.89983036    -0.02700
Br803      Br  0.48518000  0.56305922  0.08753022     0.00100
Br804      Br  0.39214023  0.57174443  0.91697481    -0.04200
C805        C  0.63089133  0.65987766  0.98521835    -0.11600
C806        C  0.60302020  0.66075215  0.00901009     0.03800
C807        C  0.58345697  0.63924172  0.01000945    -0.12200
C808        C  0.59101442  0.61654370  0.98769747     0.18700
C809        C  0.61843140  0.61586251  0.96316435    -0.09200
C810        C  0.63789708  0.63737627  0.96187427    -0.02200
H811        H  0.56228839  0.64014692  0.02859894     0.05200
C812        C  0.57081388  0.59347074  0.99205783     0.20700
H813        H  0.65908511  0.63625285  0.94336609     0.10400
C814        C  0.55225139  0.58558718  0.95693032    -0.15600
C815        C  0.53347328  0.56363306  0.96026324     0.03400
C816        C  0.53288070  0.54910614  0.99937350    -0.10900
C817        C  0.55198848  0.55679524  0.03405160    -0.00900
C818        C  0.57039063  0.57887819  0.03091817    -0.06100
H819        H  0.55266435  0.59638576  0.92660755     0.06400
H820        H  0.55247816  0.54556876  0.06392123     0.09800
Br821      Br  0.63105080  0.58553145  0.93258949    -0.05800
Br822      Br  0.58961176  0.69113077  0.03890047    -0.02700
Br823      Br  0.51099080  0.55321875  0.90936970     0.00100
Br824      Br  0.59535774  0.58802739  0.08018615    -0.04200
loop_ 
_geom_bond_atom_site_label_1 
_geom_bond_atom_site_label_2 
_geom_bond_distance 
_geom_bond_site_symmetry_2 
_ccdc_geom_bond_type 
C1            C2   1.421       .  A
C1            C6   1.409       .  A
C1          C796   1.495       .  S
C2            C3   1.411       .  A
C2          C816   1.500   1_554  S
C3            C4   1.414       .  A
C3            H8   1.084       .  S
C4            C5   1.421       .  A
C4          C756   1.500       .  S
C5            C6   1.408       .  A
C5          C765   1.496       .  S
C6            H7   1.085       .  S
C9           C10   1.408   1_455  A
C9           C14   1.400   1_565  A
C9          C705   1.484   1_556  S
C10          C11   1.405       .  A
C10         C736   1.476       .  S
C11          C12   1.406   1_565  A
C11          H16   1.084       .  S
C12          C13   1.419   1_655  A
C12         C665   1.492       .  S
C13          C14   1.405       .  A
C13         C685   1.482       .  S
C14          H15   1.085   1_556  S
O17         Mg19   2.146   1_554  S
O17         Mg25   2.148       .  S
O17          C52   1.237       .  S
C18          H57   1.081       .  S
C18          O31   1.238       .  S
C18          O55   1.272       .  A
Mg19         O48   2.152       .  S
Mg19         O63   2.322       .  S
Mg19         O59   2.278       .  S
Mg19         O30   2.302       .  S
O20         Mg62   2.151       .  S
O20         Mg45   2.143       .  S
O20          C41   1.236       .  S
O21          C52   1.272       .  A
O21         Mg45   2.302       .  S
C22         C585   1.482       .  S
C22          O24   1.272       .  A
C22          O36   1.276       .  A
O23          C51   1.271   1_554  A
O23         Mg25   2.303       .  S
O24         Mg56   2.268       .  S
Mg25         O31   2.150       .  S
Mg25         O39   2.271       .  S
Mg25         O27   2.310       .  S
C26         C776   1.502       .  S
C26          O64   1.276       .  A
C26          O32   1.278   1_556  A
O27          C34   1.276       .  A
H28          C41   1.081       .  S
C29          H54   1.081       .  S
C29          O43   1.236       .  S
C29          O44   1.270       .  A
O30          C53   1.271       .  A
O31         Mg45   2.151       .  S
O32         Mg62   2.334       .  S
C33         C605   1.489       .  S
C33          O46   1.273       .  A
C33          O38   1.276       .  A
C34         C645   1.487       .  S
C34          O61   1.271       .  A
Mg35         O42   2.157       .  S
Mg35         O43   2.151       .  S
Mg35         O36   2.302       .  S
Mg35         O37   2.296   1_556  S
Mg35         O64   2.287       .  S
O37          C41   1.270       .  A
O38         Mg45   2.305       .  S
O39          C58   1.272       .  A
O40          C60   1.275       .  A
O40         Mg56   2.310       .  S
O42         Mg56   2.160       .  S
O42          C53   1.237       .  S
O43         Mg62   2.137   1_556  S
O44         Mg56   2.296       .  S
Mg45         O61   2.269       .  S
O46         Mg62   2.276       .  S
H47          C52   1.081       .  S
O48         Mg56   2.147       .  S
O48          C51   1.237       .  S
H49          C51   1.081       .  S
H50          C53   1.081       .  S
O55         Mg62   2.305       .  S
C58         C696   1.476       .  S
C58          O63   1.277   1_554  A
O59          C60   1.274       .  A
C60         C625   1.486       .  S
O65         Mg67   2.134   1_556  S
O65         Mg73   2.144       .  S
O65         C100   1.237       .  S
C66         H105   1.081       .  S
C66          O79   1.238       .  S
C66         O103   1.273       .  A
Mg67         O96   2.154       .  S
Mg67        O111   2.325       .  S
Mg67        O107   2.258       .  S
Mg67         O78   2.303       .  S
O68        Mg110   2.146       .  S
O68         Mg93   2.135       .  S
O68          C89   1.237       .  S
O69         C100   1.271       .  A
O69         Mg93   2.301       .  S
C70         C556   1.483       .  S
C70          O72   1.272       .  A
C70          O84   1.277       .  A
O71          C99   1.270       .  A
O71         Mg73   2.301   1_554  S
O72        Mg104   2.269       .  S
Mg73         O79   2.158       .  S
Mg73         O87   2.301       .  S
Mg73         O75   2.311       .  S
C74         C676   1.489       .  S
C74         O112   1.274       .  A
C74          O80   1.276   1_554  A
O75          C82   1.276       .  A
H76          C89   1.081       .  S
C77         H102   1.081       .  S
C77          O91   1.236       .  S
C77          O92   1.270       .  A
O78         C101   1.272       .  A
O79         Mg93   2.153       .  S
O80        Mg110   2.304       .  S
C81         C576   1.484       .  S
C81          O94   1.270       .  A
C81          O86   1.275       .  A
C82         C525   1.473       .  S
C82         O109   1.270       .  A
Mg83         O90   2.143       .  S
Mg83         O91   2.149       .  S
Mg83         O84   2.313       .  S
Mg83         O85   2.296       .  S
Mg83        O112   2.284       .  S
O85          C89   1.270   1_554  A
O86         Mg93   2.302       .  S
O87         C106   1.276       .  A
O88         C108   1.273       .  A
O88        Mg104   2.285       .  S
O90        Mg104   2.150       .  S
O90         C101   1.237       .  S
O91        Mg110   2.124   1_554  S
O92        Mg104   2.292       .  S
Mg93        O109   2.244       .  S
O94        Mg110   2.261       .  S
H95         C100   1.081       .  S
O96        Mg104   2.152       .  S
O96          C99   1.236       .  S
H97          C99   1.081       .  S
H98         C101   1.081       .  S
O103       Mg110   2.306       .  S
C106        C745   1.495       .  S
C106        O111   1.278   1_556  A
O107        C108   1.271       .  A
C108        C505   1.472       .  S
O113       Mg115   2.135   1_554  S
O113       Mg121   2.157       .  S
O113        C148   1.236       .  S
C114        H153   1.081       .  S
C114        O127   1.237       .  S
C114        O151   1.272       .  A
Mg115       O144   2.148       .  S
Mg115       O159   2.304       .  S
Mg115       O155   2.272       .  S
Mg115       O126   2.300       .  S
O116       Mg158   2.153       .  S
O116       Mg141   2.144       .  S
O116        C137   1.235       .  S
O117        C148   1.270       .  A
O117       Mg141   2.293       .  S
C118        C425   1.474       .  S
C118        O120   1.270       .  A
C118        O132   1.274       .  A
O119        C147   1.269   1_554  A
O119       Mg121   2.293       .  S
O120       Mg152   2.238       .  S
Mg121       O127   2.143       .  S
Mg121       O135   2.266       .  S
Mg121       O123   2.308       .  S
C122        C805   1.493       .  S
C122        O160   1.275       .  A
C122        O128   1.279   1_556  A
O123        C130   1.274       .  A
H124        C137   1.081       .  S
C125        H150   1.081       .  S
C125        O139   1.237       .  S
C125        O140   1.271       .  A
O126        C149   1.271       .  A
O127       Mg141   2.149       .  S
O128       Mg158   2.338       .  S
C129        C445   1.479       .  S
C129        O142   1.273       .  A
C129        O134   1.270       .  A
C130        C496   1.493       .  S
C130        O157   1.271       .  A
Mg131       O138   2.154       .  S
Mg131       O139   2.152       .  S
Mg131       O132   2.302       .  S
Mg131       O133   2.295       .  S
Mg131       O160   2.286       .  S
O133        C137   1.269   1_556  A
O134       Mg141   2.277       .  S
O135        C154   1.274       .  A
O136        C156   1.274       .  A
O136       Mg152   2.309       .  S
O138       Mg152   2.153       .  S
O138        C149   1.237       .  S
O139       Mg158   2.128   1_556  S
O140       Mg152   2.297       .  S
Mg141       O157   2.257       .  S
O142       Mg158   2.250       .  S
H143        C148   1.081       .  S
O144       Mg152   2.131       .  S
O144        C147   1.235       .  S
H145        C147   1.081       .  S
H146        C149   1.081       .  S
O151       Mg158   2.308       .  S
C154        C725   1.480       .  S
C154        O159   1.275   1_554  A
O155        C156   1.274       .  A
C156        C465   1.495       .  S
O161       Mg163   2.126   1_556  S
O161       Mg169   2.142       .  S
O161        C196   1.237       .  S
C162        H201   1.081       .  S
C162        O175   1.238       .  S
C162        O199   1.273       .  A
Mg163       O192   2.144       .  S
Mg163       O207   2.326       .  S
Mg163       O203   2.262       .  S
Mg163       O174   2.306       .  S
O164       Mg206   2.142       .  S
O164       Mg189   2.135       .  S
O164        C185   1.236       .  S
O165        C196   1.271       .  A
O165       Mg189   2.295       .  S
C166        C385   1.489       .  S
C166        O168   1.270       .  A
C166        O180   1.277       .  A
O167        C195   1.270   1_556  A
O167       Mg169   2.296       .  S
O168       Mg200   2.256       .  S
Mg169       O175   2.150       .  S
Mg169       O183   2.283       .  S
Mg169       O171   2.302       .  S
C170        C716   1.475       .  S
C170        O208   1.273       .  A
C170        O176   1.278   1_554  A
O171        C178   1.275       .  A
H172        C185   1.081       .  S
C173        H198   1.081       .  S
C173        O187   1.239       .  S
C173        O188   1.272       .  A
O174        C197   1.273       .  A
O175       Mg189   2.150       .  S
O176       Mg206   2.335       .  S
C177        C405   1.489       .  S
C177        O190   1.272       .  A
C177        O182   1.275       .  A
C178        C365   1.474       .  S
C178        O205   1.271       .  A
Mg179       O186   2.141       .  S
Mg179       O187   2.150       .  S
Mg179       O180   2.323       .  S
Mg179       O181   2.300       .  S
Mg179       O208   2.267       .  S
O181        C185   1.270   1_554  A
O182       Mg189   2.299       .  S
O183        C202   1.274       .  A
O184        C204   1.274       .  A
O184       Mg200   2.298       .  S
O186       Mg200   2.143       .  S
O186        C197   1.238       .  S
O187       Mg206   2.144   1_554  S
O188       Mg200   2.302       .  S
Mg189       O205   2.245       .  S
O190       Mg206   2.273       .  S
H191        C196   1.081       .  S
O192       Mg200   2.133       .  S
O192        C195   1.237       .  S
H193        C195   1.081       .  S
H194        C197   1.081       .  S
O199       Mg206   2.306       .  S
C202        C785   1.488       .  S
C202        O207   1.278   1_556  A
O203        C204   1.272       .  A
C204        C356   1.478       .  S
N209        C214   1.353       .  A
N209        C213   1.354   1_655  A
N209        H241   1.038       .  S
N210        C217   1.352       .  A
N210        C218   1.351       .  A
N211        C216   1.354       .  A
N211        C215   1.352   1_655  A
N211        H242   1.040       .  S
N212        C219   1.350       .  A
N212        C220   1.352       .  A
C213        C221   1.389       .  A
C213        C229   1.420       .  A
C214        C230   1.417       .  A
C214        C222   1.387       .  A
C215        C223   1.387       .  A
C215        C232   1.414       .  A
C216        C231   1.416       .  A
C216        C224   1.387       .  A
C217        C229   1.417       .  A
C217        C225   1.387       .  A
C218        C232   1.412       .  A
C218        C226   1.385       .  A
C219        C227   1.387       .  A
C219        C230   1.414       .  A
C220        C228   1.385       .  A
C220        C231   1.413       .  A
C221        C222   1.372   1_455  A
C221        H233   1.081       .  S
C222        H234   1.082       .  S
C223        C224   1.372   1_455  A
C223        H235   1.082       .  S
C224        H236   1.082       .  S
C225        C226   1.373       .  A
C225        H237   1.082       .  S
C226        H238   1.082       .  S
C227        C228   1.375       .  A
C227        H239   1.082       .  S
C228        H240   1.082       .  S
C229        C656   1.490       .  S
C230        C545   1.483       .  S
C231        C565   1.490       .  S
C232        C636   1.483       .  S
N243        C248   1.354       .  A
N243        C247   1.352   1_455  A
N243        H275   1.035       .  S
N244        C251   1.351       .  A
N244        C252   1.352       .  A
N245        C250   1.353       .  A
N245        C249   1.354   1_455  A
N245        H276   1.036       .  S
N246        C253   1.351       .  A
N246        C254   1.350       .  A
C247        C255   1.388       .  A
C247        C263   1.416       .  A
C248        C264   1.416       .  A
C248        C256   1.387       .  A
C249        C257   1.387       .  A
C249        C266   1.416       .  A
C250        C265   1.417       .  A
C250        C258   1.388       .  A
C251        C263   1.414       .  A
C251        C259   1.387       .  A
C252        C266   1.412       .  A
C252        C260   1.385       .  A
C253        C261   1.386       .  A
C253        C264   1.412       .  A
C254        C262   1.386       .  A
C254        C265   1.412       .  A
C255        C256   1.374   1_655  A
C255        H267   1.082       .  S
C256        H268   1.082       .  S
C257        C258   1.373   1_655  A
C257        H269   1.083       .  S
C258        H270   1.082       .  S
C259        C260   1.373       .  A
C259        H271   1.082       .  S
C260        H272   1.082       .  S
C261        C262   1.374       .  A
C261        H273   1.082       .  S
C262        H274   1.082       .  S
C263        C485   1.483       .  S
C264        C396   1.486       .  S
C265        C416   1.481       .  S
C266        C476   1.487       .  S
N277        C282   1.354       .  A
N277        C281   1.352       .  A
N277        H309   1.036       .  S
N278        C285   1.348       .  A
N278        C286   1.350       .  A
N279        C284   1.350       .  A
N279        C283   1.351       .  A
N279        H310   1.038       .  S
N280        C287   1.348       .  A
N280        C288   1.347       .  A
C281        C289   1.387       .  A
C281        C297   1.414       .  A
C282        C298   1.415       .  A
C282        C290   1.388       .  A
C283        C291   1.387       .  A
C283        C300   1.412       .  A
C284        C299   1.409       .  A
C284        C292   1.387       .  A
C285        C297   1.410       .  A
C285        C293   1.387       .  A
C286        C300   1.411       .  A
C286        C294   1.385       .  A
C287        C295   1.386       .  A
C287        C298   1.408       .  A
C288        C296   1.386       .  A
C288        C299   1.406       .  A
C289        C290   1.371       .  A
C289        H301   1.082       .  S
C290        H302   1.082       .  S
C291        C292   1.373       .  A
C291        H303   1.083       .  S
C292        H304   1.082       .  S
C293        C294   1.376       .  A
C293        H305   1.082       .  S
C294        H306   1.082       .  S
C295        C296   1.373       .  A
C295        H307   1.082       .  S
C296        H308   1.082       .  S
C297        C376   1.476       .  S
C298        C436   1.480       .  S
C299        C456   1.472       .  S
C300        C345   1.485       .  S
N311        C316   1.351       .  A
N311        C315   1.352       .  A
N311        H343   1.040       .  S
N312        C319   1.353       .  A
N312        C320   1.351       .  A
N313        C318   1.353       .  A
N313        C317   1.353       .  A
N313        H344   1.041       .  S
N314        C321   1.349       .  A
N314        C322   1.349       .  A
C315        C323   1.388       .  A
C315        C331   1.416       .  A
C316        C332   1.415       .  A
C316        C324   1.387       .  A
C317        C325   1.389       .  A
C317        C334   1.418       .  A
C318        C333   1.416       .  A
C318        C326   1.387       .  A
C319        C331   1.415       .  A
C319        C327   1.385       .  A
C320        C334   1.416       .  A
C320        C328   1.387       .  A
C321        C329   1.386       .  A
C321        C332   1.410       .  A
C322        C330   1.386       .  A
C322        C333   1.409       .  A
C323        C324   1.372       .  A
C323        H335   1.082       .  S
C324        H336   1.083       .  S
C325        C326   1.373       .  A
C325        H337   1.082       .  S
C326        H338   1.082       .  S
C327        C328   1.375       .  A
C327        H339   1.082       .  S
C328        H340   1.082       .  S
C329        C330   1.372       .  A
C329        H341   1.082       .  S
C330        H342   1.082       .  S
C331        C616   1.487       .  S
C332        C516   1.480       .  S
C333        C536   1.480       .  S
C334        C596   1.487       .  S
C345        C346   1.409       .  A
C345        C350   1.405       .  A
C346        C347   1.400       .  A
C346       Br362   1.918       .  S
C347        C348   1.403       .  A
C347        H351   1.083       .  S
C348        C349   1.405       .  A
C348        C352   1.474       .  S
C349        C350   1.396       .  A
C349       Br361   1.918       .  S
C350        H353   1.084       .  S
C352        C354   1.400       .  A
C352        C358   1.406       .  A
C354        C355   1.399       .  A
C354        H359   1.084       .  S
C355        C356   1.415       .  A
C355       Br363   1.921       .  S
C356        C357   1.405       .  A
C357        C358   1.398       .  A
C357        H360   1.083       .  S
C358       Br364   1.919       .  S
C365        C366   1.413       .  A
C365        C370   1.406       .  A
C366        C367   1.397       .  A
C366       Br382   1.920       .  S
C367        C368   1.400       .  A
C367        H371   1.084       .  S
C368        C369   1.403       .  A
C368        C372   1.467       .  S
C369        C370   1.395       .  A
C369       Br381   1.919       .  S
C370        H373   1.084       .  S
C372        C374   1.400       .  A
C372        C378   1.406       .  A
C374        C375   1.396       .  A
C374        H379   1.084       .  S
C375        C376   1.407       .  A
C375       Br383   1.918       .  S
C376        C377   1.401       .  A
C377        C378   1.396       .  A
C377        H380   1.083       .  S
C378       Br384   1.918       .  S
C385        C386   1.419       .  A
C385        C390   1.408       .  A
C386        C387   1.400       .  A
C386       Br402   1.921       .  S
C387        C388   1.399       .  A
C387        H391   1.084       .  S
C388        C389   1.406       .  A
C388        C392   1.478       .  S
C389        C390   1.400       .  A
C389       Br401   1.918       .  S
C390        H393   1.083       .  S
C392        C394   1.403       .  A
C392        C398   1.407       .  A
C394        C395   1.401       .  A
C394        H399   1.083       .  S
C395        C396   1.408       .  A
C395       Br403   1.917       .  S
C396        C397   1.402       .  A
C397        C398   1.399       .  A
C397        H400   1.083       .  S
C398       Br404   1.918       .  S
C405        C406   1.417       .  A
C405        C410   1.411       .  A
C406        C407   1.398       .  A
C406       Br422   1.922       .  S
C407        C408   1.400       .  A
C407        H411   1.084       .  S
C408        C409   1.406       .  A
C408        C412   1.478       .  S
C409        C410   1.400       .  A
C409       Br421   1.920       .  S
C410        H413   1.083       .  S
C412        C414   1.404       .  A
C412        C418   1.410       .  A
C414        C415   1.398       .  A
C414        H419   1.083       .  S
C415        C416   1.406       .  A
C415       Br423   1.918       .  S
C416        C417   1.401       .  A
C417        C418   1.398       .  A
C417        H420   1.083       .  S
C418       Br424   1.919       .  S
C425        C426   1.412       .  A
C425        C430   1.405       .  A
C426        C427   1.398       .  A
C426       Br442   1.921       .  S
C427        C428   1.402       .  A
C427        H431   1.084       .  S
C428        C429   1.403       .  A
C428        C432   1.470       .  S
C429        C430   1.394       .  A
C429       Br441   1.919       .  S
C430        H433   1.082       .  S
C432        C434   1.402       .  A
C432        C438   1.407       .  A
C434        C435   1.396       .  A
C434        H439   1.084       .  S
C435        C436   1.407       .  A
C435       Br443   1.918       .  S
C436        C437   1.402       .  A
C437        C438   1.396       .  A
C437        H440   1.083       .  S
C438       Br444   1.919       .  S
C445        C446   1.419       .  A
C445        C450   1.406       .  A
C446        C447   1.397       .  A
C446       Br462   1.923       .  S
C447        C448   1.398       .  A
C447        H451   1.084       .  S
C448        C449   1.404       .  A
C448        C452   1.467       .  S
C449        C450   1.391       .  A
C449       Br461   1.920       .  S
C450        H453   1.083       .  S
C452        C454   1.401       .  A
C452        C458   1.408       .  A
C454        C455   1.392       .  A
C454        H459   1.084       .  S
C455        C456   1.406       .  A
C455       Br463   1.919       .  S
C456        C457   1.400       .  A
C457        C458   1.396       .  A
C457        H460   1.083       .  S
C458       Br464   1.919       .  S
C465        C466   1.422       .  A
C465        C470   1.409       .  A
C466        C467   1.403       .  A
C466       Br482   1.921       .  S
C467        C468   1.399       .  A
C467        H471   1.084       .  S
C468        C469   1.404       .  A
C468        C472   1.478       .  S
C469        C470   1.397       .  A
C469       Br481   1.920       .  S
C470        H473   1.083       .  S
C472        C474   1.403       .  A
C472        C478   1.408       .  A
C474        C475   1.402       .  A
C474        H479   1.083       .  S
C475        C476   1.409       .  A
C475       Br483   1.917       .  S
C476        C477   1.402       .  A
C477        C478   1.398       .  A
C477        H480   1.083       .  S
C478       Br484   1.919       .  S
C485        C486   1.407       .  A
C485        C490   1.402       .  A
C486        C487   1.397       .  A
C486       Br502   1.917       .  S
C487        C488   1.403       .  A
C487        H491   1.084       .  S
C488        C489   1.409       .  A
C488        C492   1.477       .  S
C489        C490   1.397       .  A
C489       Br501   1.919       .  S
C490        H493   1.084       .  S
C492        C494   1.400       .  A
C492        C498   1.404       .  A
C494        C495   1.399       .  A
C494        H499   1.084       .  S
C495        C496   1.420       .  A
C495       Br503   1.923       .  S
C496        C497   1.412       .  A
C497        C498   1.398       .  A
C497        H500   1.082       .  S
C498       Br504   1.920       .  S
C505        C506   1.411       .  A
C505        C510   1.404       .  A
C506        C507   1.395       .  A
C506       Br522   1.921       .  S
C507        C508   1.401       .  A
C507        H511   1.084       .  S
C508        C509   1.410       .  A
C508        C512   1.476       .  S
C509        C510   1.397       .  A
C509       Br521   1.920       .  S
C510        H513   1.084       .  S
C512        C514   1.405       .  A
C512        C518   1.410       .  A
C514        C515   1.398       .  A
C514        H519   1.083       .  S
C515        C516   1.407       .  A
C515       Br523   1.918       .  S
C516        C517   1.401       .  A
C517        C518   1.394       .  A
C517        H520   1.084       .  S
C518       Br524   1.920       .  S
C525        C526   1.410       .  A
C525        C530   1.407       .  A
C526        C527   1.396       .  A
C526       Br542   1.919       .  S
C527        C528   1.401       .  A
C527        H531   1.084       .  S
C528        C529   1.404       .  A
C528        C532   1.470       .  S
C529        C530   1.398       .  A
C529       Br541   1.918       .  S
C530        H533   1.084       .  S
C532        C534   1.401       .  A
C532        C538   1.407       .  A
C534        C535   1.397       .  A
C534        H539   1.083       .  S
C535        C536   1.407       .  A
C535       Br543   1.918       .  S
C536        C537   1.402       .  A
C537        C538   1.397       .  A
C537        H540   1.083       .  S
C538       Br544   1.918       .  S
C545        C546   1.407       .  A
C545        C550   1.402       .  A
C546        C547   1.399       .  A
C546       Br562   1.917       .  S
C547        C548   1.403       .  A
C547        H551   1.083       .  S
C548        C549   1.407       .  A
C548        C552   1.475       .  S
C549        C550   1.397       .  A
C549       Br561   1.918       .  S
C550        H553   1.083       .  S
C552        C554   1.399       .  A
C552        C558   1.406       .  A
C554        C555   1.399       .  A
C554        H559   1.084       .  S
C555        C556   1.415       .  A
C555       Br563   1.917       .  S
C556        C557   1.406       .  A
C557        C558   1.399       .  A
C557        H560   1.083       .  S
C558       Br564   1.919       .  S
C565        C566   1.410       .  A
C565        C570   1.405       .  A
C566        C567   1.400       .  A
C566       Br582   1.918       .  S
C567        C568   1.403       .  A
C567        H571   1.083       .  S
C568        C569   1.407       .  A
C568        C572   1.478       .  S
C569        C570   1.399       .  A
C569       Br581   1.919       .  S
C570        H573   1.083       .  S
C572        C574   1.402       .  A
C572        C578   1.405       .  A
C574        C575   1.400       .  A
C574        H579   1.084       .  S
C575        C576   1.416       .  A
C575       Br583   1.922       .  S
C576        C577   1.407       .  A
C577        C578   1.398       .  A
C577        H580   1.083       .  S
C578       Br584   1.918       .  S
C585        C586   1.415       .  A
C585        C590   1.407       .  A
C586        C587   1.398       .  A
C586       Br602   1.917       .  S
C587        C588   1.399       .  A
C587        H591   1.084       .  S
C588        C589   1.406       .  A
C588        C592   1.474       .  S
C589        C590   1.398       .  A
C589       Br601   1.919       .  S
C590        H593   1.083       .  S
C592        C594   1.402       .  A
C592        C598   1.407       .  A
C594        C595   1.400       .  A
C594        H599   1.083       .  S
C595        C596   1.410       .  A
C595       Br603   1.918       .  S
C596        C597   1.404       .  A
C597        C598   1.397       .  A
C597        H600   1.083       .  S
C598       Br604   1.919       .  S
C605        C606   1.417       .  A
C605        C610   1.410       .  A
C606        C607   1.401       .  A
C606       Br622   1.921       .  S
C607        C608   1.401       .  A
C607        H611   1.084       .  S
C608        C609   1.404       .  A
C608        C612   1.478       .  S
C609        C610   1.399       .  A
C609       Br621   1.917       .  S
C610        H613   1.083       .  S
C612        C614   1.403       .  A
C612        C618   1.407       .  A
C614        C615   1.400       .  A
C614        H619   1.083       .  S
C615        C616   1.409       .  A
C615       Br623   1.918       .  S
C616        C617   1.403       .  A
C617        C618   1.399       .  A
C617        H620   1.083       .  S
C618       Br624   1.918       .  S
C625        C626   1.416       .  A
C625        C630   1.406       .  A
C626        C627   1.400       .  A
C626       Br642   1.919       .  S
C627        C628   1.400       .  A
C627        H631   1.084       .  S
C628        C629   1.409       .  A
C628        C632   1.480       .  S
C629        C630   1.401       .  A
C629       Br641   1.920       .  S
C630        H633   1.083       .  S
C632        C634   1.404       .  A
C632        C638   1.409       .  A
C634        C635   1.400       .  A
C634        H639   1.083       .  S
C635        C636   1.406       .  A
C635       Br643   1.917       .  S
C636        C637   1.402       .  A
C637        C638   1.398       .  A
C637        H640   1.084       .  S
C638       Br644   1.919       .  S
C645        C646   1.417       .  A
C645        C650   1.407       .  A
C646        C647   1.401       .  A
C646       Br662   1.922       .  S
C647        C648   1.402       .  A
C647        H651   1.084       .  S
C648        C649   1.408       .  A
C648        C652   1.482       .  S
C649        C650   1.400       .  A
C649       Br661   1.920       .  S
C650        H653   1.083       .  S
C652        C654   1.402       .  A
C652        C658   1.411       .  A
C654        C655   1.398       .  A
C654        H659   1.084       .  S
C655        C656   1.410       .  A
C655       Br663   1.920       .  S
C656        C657   1.404       .  A
C657        C658   1.401       .  A
C657        H660   1.083       .  S
C658       Br664   1.919       .  S
C665        C666   1.415       .  A
C665        C670   1.405   1_556  A
C666        C667   1.402       .  A
C666       Br682   1.920       .  S
C667        C668   1.403   1_556  A
C667        H671   1.084       .  S
C668        C669   1.407       .  A
C668        C672   1.482       .  S
C669        C670   1.399       .  A
C669       Br681   1.917       .  S
C670        H673   1.083       .  S
C672        C674   1.403       .  A
C672        C678   1.405   1_554  A
C674        C675   1.403       .  A
C674        H679   1.084       .  S
C675        C676   1.416       .  A
C675       Br683   1.921       .  S
C676        C677   1.409   1_554  A
C677        C678   1.399       .  A
C677        H680   1.083       .  S
C678       Br684   1.918       .  S
C685        C686   1.408       .  A
C685        C690   1.403   1_556  A
C686        C687   1.401       .  A
C686       Br702   1.917       .  S
C687        C688   1.406   1_556  A
C687        H691   1.083       .  S
C688        C689   1.409       .  A
C688        C692   1.484       .  S
C689        C690   1.396       .  A
C689       Br701   1.919       .  S
C690        H693   1.084       .  S
C692        C694   1.404       .  A
C692        C698   1.411   1_554  A
C694        C695   1.400       .  A
C694        H699   1.084       .  S
C695        C696   1.410       .  A
C695       Br703   1.919       .  S
C696        C697   1.403   1_554  A
C697        C698   1.400       .  A
C697        H700   1.084       .  S
C698       Br704   1.919       .  S
C705        C706   1.410       .  A
C705        C710   1.403   1_554  A
C706        C707   1.402       .  A
C706       Br722   1.919       .  S
C707        C708   1.403       .  A
C707        H711   1.083       .  S
C708        C709   1.408   1_554  A
C708        C712   1.481       .  S
C709        C710   1.400       .  A
C709       Br721   1.917       .  S
C710        H713   1.083       .  S
C712        C714   1.402       .  A
C712        C718   1.409   1_554  A
C714        C715   1.401       .  A
C714        H719   1.083       .  S
C715        C716   1.408       .  A
C715       Br723   1.918       .  S
C716        C717   1.403   1_554  A
C717        C718   1.403       .  A
C717        H720   1.083       .  S
C718       Br724   1.919       .  S
C725        C726   1.414   1_554  A
C725        C730   1.405       .  A
C726        C727   1.399       .  A
C726       Br742   1.921       .  S
C727        C728   1.402   1_556  A
C727        H731   1.084       .  S
C728        C729   1.409       .  A
C728        C732   1.478       .  S
C729        C730   1.398       .  A
C729       Br741   1.920       .  S
C730        H733   1.084       .  S
C732        C734   1.403   1_554  A
C732        C738   1.410       .  A
C734        C735   1.396       .  A
C734        H739   1.083       .  S
C735        C736   1.406       .  A
C735       Br743   1.918       .  S
C736        C737   1.403   1_556  A
C737        C738   1.399       .  A
C737        H740   1.083       .  S
C738       Br744   1.920       .  S
C745        C746   1.415       .  A
C745        C750   1.407   1_556  A
C746        C747   1.405       .  A
C746       Br762   1.918       .  S
C747        C748   1.406   1_556  A
C747        H751   1.083       .  S
C748        C749   1.412       .  A
C748        C752   1.497       .  S
C749        C750   1.404       .  A
C749       Br761   1.919       .  S
C750        H753   1.083       .  S
C752        C754   1.407       .  A
C752        C758   1.411   1_554  A
C754        C755   1.406       .  A
C754        H759   1.083       .  S
C755        C756   1.414       .  A
C755       Br763   1.917       .  S
C756        C757   1.406   1_554  A
C757        C758   1.401       .  A
C757        H760   1.083       .  S
C758       Br764   1.919       .  S
C765        C766   1.411   1_554  A
C765        C770   1.406       .  A
C766        C767   1.405       .  A
C766       Br782   1.918       .  S
C767        C768   1.407   1_556  A
C767        H771   1.083       .  S
C768        C769   1.412       .  A
C768        C772   1.495   1_554  S
C769        C770   1.402       .  A
C769       Br781   1.920       .  S
C770        H773   1.084       .  S
C772        C774   1.404   1_556  A
C772        C778   1.410       .  A
C774        C775   1.405       .  A
C774        H779   1.084       .  S
C775        C776   1.420   1_554  A
C775       Br783   1.921       .  S
C776        C777   1.410       .  A
C777        C778   1.403       .  A
C777        H780   1.083       .  S
C778       Br784   1.920       .  S
C785        C786   1.413       .  A
C785        C790   1.406   1_556  A
C786        C787   1.402       .  A
C786       Br802   1.917       .  S
C787        C788   1.404       .  A
C787        H791   1.084       .  S
C788        C789   1.411   1_556  A
C788        C792   1.492       .  S
C789        C790   1.403       .  A
C789       Br801   1.919       .  S
C790        H793   1.084       .  S
C792        C794   1.405   1_556  A
C792        C798   1.411       .  A
C794        C795   1.403       .  A
C794        H799   1.083       .  S
C795        C796   1.411       .  A
C795       Br803   1.916       .  S
C796        C797   1.407   1_554  A
C797        C798   1.401       .  A
C797        H800   1.084       .  S
C798       Br804   1.920       .  S
C805        C806   1.415   1_556  A
C805        C810   1.407       .  A
C806        C807   1.406       .  A
C806       Br822   1.919       .  S
C807        C808   1.405   1_554  A
C807        H811   1.083       .  S
C808        C809   1.410       .  A
C808        C812   1.493       .  S
C809        C810   1.404       .  A
C809       Br821   1.917       .  S
C810        H813   1.083       .  S
C812        C814   1.406       .  A
C812        C818   1.409   1_556  A
C814        C815   1.408       .  A
C814        H819   1.083       .  S
C815        C816   1.414       .  A
C815       Br823   1.917       .  S
C816        C817   1.406   1_556  A
C817        C818   1.403       .  A
C817        H820   1.083       .  S
C818       Br824   1.918       .  S
