geometry optimzed in LAMMPS
_audit_creation_date              2020-11-30 
_audit_creation_method            'lammps2cif' 
_symmetry_space_group_name_H-M    'P1' 
_symmetry_Int_Tables_number       1 
_symmetry_cell_setting            triclinic 
loop_ 
_symmetry_equiv_pos_as_xyz 
  x,y,z 
_cell_length_a                    38.88521721 
_cell_length_b                    38.869571294368946 
_cell_length_c                    37.360719701219026 
_cell_angle_alpha                 90.71951509656117 
_cell_angle_beta                  89.98523501159401 
_cell_angle_gamma                 89.68003956526555 
loop_ 
_atom_site_label 
_atom_site_type_symbol 
_atom_site_fract_x 
_atom_site_fract_y 
_atom_site_fract_z 
_atom_site_charge 
O1          O  0.53206221  0.97859597  0.02214201    -0.73100
O2          O  0.51294020  0.04203612  0.44055992    -0.74100
O3          O  0.51744364  0.04996062  0.01584673    -0.62700
O4          O  0.52734072  0.97082564  0.44600646    -0.71100
O5          O  0.47178223  0.95950364  0.45158314    -0.70600
O6          O  0.46182238  0.03911616  0.02154848    -0.61900
O7          O  0.45723728  0.03090921  0.44506272    -0.74400
O8          O  0.47648205  0.96723160  0.02730782    -0.73200
Cu9        Cu  0.52432988  0.01067295  0.48102794     1.04600
Cu10       Cu  0.46483983  0.99885959  0.98657144     1.04300
C11         C  0.50752102  0.96292727  0.03771912     0.93100
C12         C  0.48211285  0.04625210  0.42962854     0.92300
C13         C  0.48821425  0.05707551  0.02984453     0.84400
C14         C  0.50106170  0.95289925  0.43739362     0.90700
C15         C  0.47261644  0.23181123  0.23590533     0.03000
C16         C  0.47839709  0.21202254  0.26679723    -0.13200
C17         C  0.47668064  0.17600477  0.26555709     0.00500
C18         C  0.47007263  0.15937534  0.23289343    -0.11700
C19         C  0.46575572  0.17815552  0.20142652     0.03000
C20         C  0.46697804  0.21438185  0.20294426    -0.11100
H21         H  0.48411859  0.22452155  0.29214468     0.08600
H22         H  0.46939231  0.13149502  0.23171241     0.06100
H23         H  0.46263525  0.22871359  0.17869220     0.06000
C24         C  0.51767786  0.77777178  0.23397871     0.03000
C25         C  0.52328267  0.79675954  0.26596999    -0.13200
C26         C  0.52817216  0.83267653  0.26525376     0.00500
C27         C  0.52694330  0.84968341  0.23237548    -0.11700
C28         C  0.52039447  0.83167152  0.20047637     0.03000
C29         C  0.51655821  0.79581301  0.20134260    -0.11100
H30         H  0.52320956  0.78392364  0.29150979     0.08600
H31         H  0.52907330  0.87747128  0.23186493     0.06100
H32         H  0.51274494  0.78216812  0.17624851     0.06000
O33         O  0.04183986  0.47580799  0.47650844    -0.73100
O34         O  0.97391105  0.45732954  0.05536864    -0.74100
O35         O  0.96935677  0.46558693  0.47933257    -0.62700
O36         O  0.04602644  0.46737879  0.05186298    -0.71100
O37         O  0.03759045  0.52333308  0.06035521    -0.70600
O38         O  0.96133677  0.52163946  0.48734434    -0.61900
O39         O  0.96531763  0.51340172  0.06282471    -0.74400
O40         O  0.03356105  0.53185356  0.48452542    -0.73200
Cu41       Cu  0.00801115  0.46457818  0.01546638     1.04600
Cu42       Cu  0.99920024  0.52449184  0.02401013     1.04300
C43         C  0.04837318  0.50685796  0.46799795     0.93100
C44         C  0.95917832  0.48242789  0.07184617     0.92300
C45         C  0.95335043  0.49337405  0.47162712     0.84400
C46         C  0.05370412  0.49555939  0.06787797     0.90700
C47         C  0.23131788  0.50788733  0.26758228     0.03000
C48         C  0.21406657  0.50711435  0.30083231    -0.13200
C49         C  0.17823280  0.51116831  0.30279817     0.00500
C50         C  0.15946503  0.51680269  0.27145421    -0.11700
C51         C  0.17583205  0.51680927  0.23805853     0.03000
C52         C  0.21166199  0.51211959  0.23615641    -0.11100
H53         H  0.22834928  0.50376144  0.32542549     0.08600
H54         H  0.13171168  0.51944852  0.27286638     0.06100
H55         H  0.22401419  0.51155260  0.21017070     0.06000
C56         C  0.77554742  0.48107219  0.27140364     0.03000
C57         C  0.79402613  0.47479313  0.30328248    -0.13200
C58         C  0.82994619  0.47067364  0.30272301     0.00500
C59         C  0.84758940  0.47204819  0.27009594    -0.11700
C60         C  0.83002965  0.47913837  0.23827086     0.03000
C61         C  0.79417927  0.48388502  0.23912229    -0.11100
H62         H  0.78072999  0.47271200  0.32860106     0.08600
H63         H  0.87536232  0.46934272  0.26977922     0.06100
H64         H  0.78103930  0.49021811  0.21451572     0.06000
O65         O  0.50856504  0.55256604  0.27728113    -0.73100
O66         O  0.49764361  0.44967540  0.26249039    -0.74100
O67         O  0.55463126  0.49554046  0.27067215    -0.62700
O68         O  0.45159683  0.50619243  0.26947419    -0.71100
O69         O  0.45259971  0.51343048  0.21068169    -0.70600
O70         O  0.55574344  0.50158233  0.21173869    -0.61900
O71         O  0.49889809  0.45657021  0.20369893    -0.74400
O72         O  0.50914821  0.55872167  0.21834708    -0.73200
Cu73       Cu  0.50307571  0.50079300  0.27204532     1.04600
Cu74       Cu  0.50419340  0.50786852  0.20912184     1.04300
C75         C  0.51034503  0.57188644  0.24985182     0.93100
C76         C  0.49642840  0.43691977  0.23074507     0.92300
C77         C  0.57146607  0.49653803  0.24131808     0.84400
C78         C  0.43578537  0.51119269  0.23997194     0.90700
C79         C  0.73716082  0.48542055  0.27176918    -0.05400
C80         C  0.72020244  0.49972970  0.30185385    -0.05300
C81         C  0.68443707  0.50396832  0.30223673    -0.23500
C82         C  0.66472387  0.49473113  0.27225442     0.18800
C83         C  0.68127877  0.48084202  0.24163782     0.16000
C84         C  0.71712849  0.47572304  0.24180256    -0.18500
C85         C  0.66171579  0.47257579  0.21119620    -0.20300
C86         C  0.62614794  0.47820866  0.21102064    -0.12900
C87         C  0.60929618  0.49145488  0.24152596     0.03800
C88         C  0.62880332  0.49947088  0.27222511    -0.25000
H89         H  0.73454627  0.50831723  0.32507593     0.08900
H90         H  0.67225417  0.51499015  0.32583638     0.12500
H91         H  0.72925945  0.46403225  0.21854561     0.12400
H92         H  0.67395311  0.46201425  0.18740666     0.12200
H93         H  0.61168862  0.47166630  0.18713585     0.12700
H94         H  0.61612542  0.50995478  0.29582497     0.14700
C95         C  0.39778934  0.51392485  0.23979735    -0.05400
C96         C  0.38070503  0.53362410  0.21393420    -0.05300
C97         C  0.34478428  0.53649709  0.21415539    -0.23500
C98         C  0.32526512  0.51908545  0.23977306     0.18800
C99         C  0.34222322  0.49851326  0.26528793     0.16000
C100        C  0.37830432  0.49642161  0.26542990    -0.18500
C101        C  0.32281722  0.48028513  0.29021314    -0.20300
C102        C  0.28696782  0.48277811  0.29032253    -0.12900
C103        C  0.26959691  0.50402557  0.26589139     0.03800
C104        C  0.28915880  0.52196262  0.24042177    -0.25000
H105        H  0.39520098  0.54728024  0.19389585     0.08900
H106        H  0.33227253  0.55226721  0.19423295     0.12500
H107        H  0.39122727  0.48073399  0.28517663     0.12400
H108        H  0.33537530  0.46397914  0.30963906     0.12200
H109        H  0.27285642  0.46781847  0.30957799     0.12700
H110        H  0.27644263  0.53869833  0.22152043     0.14700
C111        C  0.15468283  0.52007779  0.20536357    -0.05400
C112        C  0.13284587  0.54864830  0.20135585    -0.05300
C113        C  0.11005127  0.55037522  0.17251645    -0.23500
C114        C  0.10818277  0.52315196  0.14760669     0.18800
C115        C  0.13021054  0.49433138  0.15131047     0.16000
C116        C  0.15370701  0.49320170  0.17989654    -0.18500
C117        C  0.12759991  0.46670164  0.12698928    -0.20300
C118        C  0.10301892  0.46733067  0.09966468    -0.12900
C119        C  0.08088057  0.49579112  0.09577729     0.03800
C120        C  0.08399547  0.52387474  0.11967195    -0.25000
H121        H  0.13315408  0.56944826  0.22092848     0.08900
H122        H  0.09330787  0.57259421  0.17019841     0.12500
H123        H  0.17010672  0.47084014  0.18328398     0.12400
H124        H  0.14414843  0.44435224  0.12946451     0.12200
H125        H  0.10123141  0.44537882  0.08162759     0.12700
H126        H  0.06693101  0.54585041  0.11722651     0.14700
C127        C  0.07274451  0.51395792  0.43848586    -0.05400
C128        C  0.07251849  0.54621965  0.42186424    -0.05300
C129        C  0.09405676  0.55260719  0.39275748    -0.23500
C130        C  0.11658353  0.52700065  0.37997057     0.18800
C131        C  0.11793584  0.49483921  0.39722632     0.16000
C132        C  0.09581444  0.48842013  0.42613480    -0.18500
C133        C  0.14103783  0.46948456  0.38489496    -0.20300
C134        C  0.16189480  0.47558481  0.35516821    -0.12900
C135        C  0.15968093  0.50691521  0.33701755     0.03800
C136        C  0.13725053  0.53272770  0.34978846    -0.25000
H137        H  0.05506061  0.56633387  0.43084515     0.08900
H138        H  0.09282649  0.57748060  0.38001083     0.12500
H139        H  0.09649974  0.46353846  0.43892893     0.12400
H140        H  0.14256190  0.44474098  0.39785970     0.12200
H141        H  0.17883586  0.45531623  0.34543373     0.12700
H142        H  0.13551877  0.55696239  0.33581331     0.14700
C143        C  0.93557354  0.47566247  0.10210642    -0.05400
C144        C  0.93755626  0.44434226  0.12042349    -0.05300
C145        C  0.91693238  0.43853010  0.15039381    -0.23500
C146        C  0.89353313  0.46374443  0.16233266     0.18800
C147        C  0.89053962  0.49494855  0.14349865     0.16000
C148        C  0.91180067  0.50085314  0.11376479    -0.18500
C149        C  0.86653883  0.51983482  0.15494953    -0.20300
C150        C  0.84612369  0.51411415  0.18510237    -0.12900
C151        C  0.84967390  0.48367363  0.20464188     0.03800
C152        C  0.87334208  0.45844935  0.19297694    -0.25000
H153        H  0.95571517  0.42459038  0.11209110     0.08900
H154        H  0.91946443  0.41439898  0.16437935     0.12500
H155        H  0.90984446  0.52502462  0.09972774     0.12400
H156        H  0.86376957  0.54383656  0.14078629     0.12200
H157        H  0.82820437  0.53394939  0.19383932     0.12700
H158        H  0.87604596  0.43481571  0.20784454     0.14700
C159        C  0.84987260  0.46725019  0.33623257    -0.05400
C160        C  0.86893651  0.43720802  0.34268084    -0.05300
C161        C  0.89136908  0.43551582  0.37190067    -0.23500
C162        C  0.89576429  0.46420529  0.39461016     0.18800
C163        C  0.87627998  0.49441214  0.38856032     0.16000
C164        C  0.85307069  0.49555420  0.35971659    -0.18500
C165        C  0.88129311  0.52336770  0.41065219    -0.20300
C166        C  0.90594813  0.52276450  0.43789316    -0.12900
C167        C  0.92586043  0.49306182  0.44394688     0.03800
C168        C  0.92012134  0.46360254  0.42246148    -0.25000
H169        H  0.86693848  0.41530716  0.32460280     0.08900
H170        H  0.90608732  0.41214923  0.37606241     0.12500
H171        H  0.83877974  0.51898795  0.35441787     0.12400
H172        H  0.86664424  0.54676574  0.40638717     0.12200
H173        H  0.90965888  0.54577672  0.45403220     0.12700
H174        H  0.93531564  0.44053085  0.42665822     0.14700
C175        C  0.51172722  0.73956719  0.23425828    -0.05400
C176        C  0.49034171  0.72424038  0.20815414    -0.05300
C177        C  0.48597476  0.68866240  0.20633643    -0.23500
C178        C  0.50204296  0.66730876  0.23118716     0.18800
C179        C  0.52222384  0.68202051  0.25876917     0.16000
C180        C  0.52730370  0.71799859  0.25992672    -0.18500
C181        C  0.53709583  0.66034235  0.28443903    -0.20300
C182        C  0.53243422  0.62455112  0.28232911    -0.12900
C183        C  0.51354449  0.60975917  0.25404423     0.03800
C184        C  0.49824007  0.63143705  0.22872874    -0.25000
H185        H  0.47661463  0.73970922  0.18893458     0.08900
H186        H  0.46984250  0.67784223  0.18545019     0.12500
H187        H  0.54388561  0.72892919  0.28032413     0.12400
H188        H  0.55243603  0.67103030  0.30602882     0.12200
H189        H  0.54442320  0.60835058  0.30218592     0.12700
H190        H  0.48317495  0.62032919  0.20711557     0.14700
C191        C  0.47239558  0.27036590  0.23880737    -0.05400
C192        C  0.46084810  0.28674591  0.27054676    -0.05300
C193        C  0.46304323  0.32238129  0.27511662    -0.23500
C194        C  0.47612455  0.34280600  0.24776684     0.18800
C195        C  0.48613791  0.32718466  0.21499590     0.16000
C196        C  0.48443624  0.29111300  0.21075959    -0.18500
C197        C  0.49818630  0.34793183  0.18724666    -0.20300
C198        C  0.50094948  0.38359881  0.19221366    -0.12900
C199        C  0.49222295  0.39923478  0.22518439     0.03800
C200        C  0.47951467  0.37856366  0.25278555    -0.25000
H201        H  0.45008994  0.27200992  0.29218965     0.08900
H202        H  0.45460490  0.33394591  0.30017211     0.12500
H203        H  0.49346242  0.27929402  0.18608120     0.12400
H204        H  0.50570340  0.33656796  0.16179001     0.12200
H205        H  0.51061019  0.39889966  0.17040395     0.12700
H206        H  0.47217021  0.39029133  0.27814613     0.14700
C207        C  0.46079131  0.15890068  0.16732095    -0.05400
C208        C  0.43383910  0.13512441  0.16424322    -0.05300
C209        C  0.43214912  0.11234035  0.13503899    -0.23500
C210        C  0.45789976  0.11235212  0.10874548     0.18800
C211        C  0.48469055  0.13677465  0.11111611     0.16000
C212        C  0.48566272  0.16028994  0.14009805    -0.18500
C213        C  0.51095522  0.13613303  0.08540617    -0.20300
C214        C  0.51148003  0.11074509  0.05853467    -0.12900
C215        C  0.48546710  0.08578897  0.05637076     0.03800
C216        C  0.45816071  0.08738147  0.08109151    -0.25000
H217        H  0.41462494  0.13350690  0.18516553     0.08900
H218        H  0.41145582  0.09382905  0.13376994     0.12500
H219        H  0.50686973  0.17813004  0.14269378     0.12400
H220        H  0.53167708  0.15461938  0.08670832     0.12200
H221        H  0.53264207  0.11033310  0.03967418     0.12700
H222        H  0.43802315  0.06823230  0.07987623     0.14700
C223        C  0.47546283  0.06862481  0.39859106    -0.05400
C224        C  0.44577167  0.06411493  0.37767298    -0.05300
C225        C  0.44016433  0.08418994  0.34740913    -0.23500
C226        C  0.46389470  0.10952506  0.33786298     0.18800
C227        C  0.49351721  0.11477057  0.35912007     0.16000
C228        C  0.49930277  0.09404253  0.38907508    -0.18500
C229        C  0.51684217  0.14066217  0.35003472    -0.20300
C230        C  0.51099224  0.16101501  0.32001639    -0.12900
C231        C  0.48203421  0.15547976  0.29828472     0.03800
C232        C  0.45851790  0.12968026  0.30742347    -0.25000
H233        H  0.42717922  0.04455963  0.38432734     0.08900
H234        H  0.41729019  0.07988201  0.33146610     0.12500
H235        H  0.52220826  0.09787711  0.40513276     0.12400
H236        H  0.53961674  0.14512335  0.36608704     0.12200
H237        H  0.52949249  0.18064216  0.31328887     0.12700
H238        H  0.43593887  0.12552440  0.29095362     0.14700
C239        C  0.51530775  0.93996968  0.06811651    -0.05400
C240        C  0.54633735  0.94370233  0.08704087    -0.05300
C241        C  0.55389003  0.92274248  0.11615036    -0.23500
C242        C  0.53077085  0.89725076  0.12665742     0.18800
C243        C  0.49980468  0.89265013  0.10737700     0.16000
C244        C  0.49207379  0.91428379  0.07848700    -0.18500
C245        C  0.47706090  0.86660750  0.11749873    -0.20300
C246        C  0.48456893  0.84585730  0.14686438    -0.12900
C247        C  0.51472671  0.85100056  0.16690984     0.03800
C248        C  0.53791053  0.87659822  0.15639716    -0.25000
H249        H  0.56463692  0.96328465  0.07966258     0.08900
H250        H  0.57779407  0.92655702  0.13051757     0.12500
H251        H  0.46819426  0.91093023  0.06392103     0.12400
H252        H  0.45327308  0.86256354  0.10299361     0.12200
H253        H  0.46618381  0.82652699  0.15473483     0.12700
H254        H  0.56130330  0.88062247  0.17163237     0.14700
C255        C  0.50429555  0.92494970  0.41016948    -0.05400
C256        C  0.48005644  0.89827531  0.40862894    -0.05300
C257        C  0.48174254  0.87303077  0.38163708    -0.23500
C258        C  0.50728953  0.87437285  0.35518862     0.18800
C259        C  0.53202972  0.90089002  0.35666671     0.16000
C260        C  0.53067399  0.92568065  0.38439406    -0.21400
C261        C  0.55698551  0.90285594  0.32968356    -0.20300
C262        C  0.55663870  0.87960276  0.30083411    -0.12900
C263        C  0.53169632  0.85358685  0.29863461     0.03800
C264        C  0.50761857  0.85055858  0.32649176    -0.25000
H265        H  0.45960222  0.89705273  0.42824416     0.08900
H266        H  0.46254225  0.85294440  0.38094955     0.12500
H267        H  0.54931766  0.94631075  0.38506386     0.12400
H268        H  0.57612390  0.92300563  0.33031215     0.12200
H269        H  0.57542535  0.88241376  0.27966772     0.12700
H270        H  0.48794060  0.83097285  0.32474406     0.14700
O271        O  0.53206228  0.97859586  0.52214201    -0.73100
O272        O  0.51294015  0.04203625  0.94055992    -0.74100
O273        O  0.51744371  0.04996052  0.51584673    -0.62700
O274        O  0.52734064  0.97082577  0.94600645    -0.71100
O275        O  0.47178214  0.95950380  0.95158313    -0.70600
O276        O  0.46182245  0.03911603  0.52154848    -0.61900
O277        O  0.45723724  0.03090936  0.94506273    -0.74400
O278        O  0.47648212  0.96723147  0.52730784    -0.73200
Cu279      Cu  0.52432981  0.01067307  0.98102793     1.04600
Cu280      Cu  0.46483990  0.99885945  0.48657144     1.04300
C281        C  0.50752109  0.96292716  0.53771913     0.93100
C282        C  0.48211281  0.04625225  0.92962856     0.92300
C283        C  0.48821433  0.05707541  0.52984453     0.84400
C284        C  0.50106159  0.95289940  0.93739361     0.90700
C285        C  0.47261644  0.23181124  0.73590521     0.03000
C286        C  0.47839706  0.21202254  0.76679709    -0.13200
C287        C  0.47668057  0.17600479  0.76555701     0.00500
C288        C  0.47007254  0.15937534  0.73289336    -0.11700
C289        C  0.46575568  0.17815552  0.70142645     0.03000
C290        C  0.46697805  0.21438186  0.70294414    -0.11100
H291        H  0.48411859  0.22452163  0.79214467     0.08600
H292        H  0.46939218  0.13149504  0.73171238     0.06100
H293        H  0.46263529  0.22871357  0.67869210     0.06000
C294        C  0.51767801  0.77777178  0.73397883     0.03000
C295        C  0.52328276  0.79675957  0.76597011    -0.13200
C296        C  0.52817223  0.83267658  0.76525384     0.00500
C297        C  0.52694342  0.84968342  0.73237554    -0.11700
C298        C  0.52039465  0.83167149  0.70047644     0.03000
C299        C  0.51655840  0.79581299  0.70134270    -0.11100
H300        H  0.52320961  0.78392373  0.79150988     0.08600
H301        H  0.52907342  0.87747129  0.73186494     0.06100
H302        H  0.51274515  0.78216807  0.67624861     0.06000
O303        O  0.04183985  0.47580800  0.97650845    -0.73100
O304        O  0.97391104  0.45732956  0.55536859    -0.74100
O305        O  0.96935676  0.46558692  0.97933259    -0.62700
O306        O  0.04602644  0.46737879  0.55186298    -0.71100
O307        O  0.03759045  0.52333308  0.56035524    -0.70600
O308        O  0.96133674  0.52163945  0.98734438    -0.61900
O309        O  0.96531761  0.51340174  0.56282467    -0.74400
O310        O  0.03356102  0.53185356  0.98452541    -0.73200
Cu311      Cu  0.00801115  0.46457819  0.51546636     1.04600
Cu312      Cu  0.99920025  0.52449185  0.52401012     1.04300
C313        C  0.04837317  0.50685797  0.96799795     0.93100
C314        C  0.95917831  0.48242791  0.57184611     0.92300
C315        C  0.95335042  0.49337403  0.97162714     0.84400
C316        C  0.05370412  0.49555939  0.56787799     0.90700
C317        C  0.23131789  0.50788734  0.76758231     0.03000
C318        C  0.21406657  0.50711435  0.80083233    -0.13200
C319        C  0.17823281  0.51116832  0.80279819     0.00500
C320        C  0.15946508  0.51680270  0.77145422    -0.11700
C321        C  0.17583208  0.51680929  0.73805854     0.03000
C322        C  0.21166203  0.51211961  0.73615643    -0.11100
H323        H  0.22834928  0.50376143  0.82542554     0.08600
H324        H  0.13171163  0.51944854  0.77286638     0.06100
H325        H  0.22401423  0.51155263  0.71017073     0.06000
C326        C  0.77554747  0.48107233  0.77140363     0.03000
C327        C  0.79402615  0.47479324  0.80328248    -0.13200
C328        C  0.82994620  0.47067363  0.80272302     0.00500
C329        C  0.84758938  0.47204814  0.77009594    -0.11700
C330        C  0.83002970  0.47913840  0.73827087     0.03000
C331        C  0.79417932  0.48388515  0.73912228    -0.11100
H332        H  0.78073001  0.47271215  0.82860106     0.08600
H333        H  0.87536243  0.46934257  0.76977922     0.06100
H334        H  0.78103940  0.49021827  0.71451575     0.06000
O335        O  0.50856509  0.55256604  0.77728129    -0.73100
O336        O  0.49764358  0.44967540  0.76249046    -0.74100
O337        O  0.55463128  0.49554044  0.77067225    -0.62700
O338        O  0.45159685  0.50619246  0.76947432    -0.71100
O339        O  0.45259972  0.51343052  0.71068182    -0.70600
O340        O  0.55574345  0.50158237  0.71173880    -0.61900
O341        O  0.49889809  0.45657025  0.70369901    -0.74400
O342        O  0.50914822  0.55872171  0.71834725    -0.73200
Cu343      Cu  0.50307572  0.50079300  0.77204543     1.04600
Cu344      Cu  0.50419340  0.50786856  0.70912196     1.04300
C345        C  0.51034507  0.57188646  0.74985200     0.93100
C346        C  0.49642838  0.43691980  0.73074512     0.92300
C347        C  0.57146608  0.49653805  0.74131817     0.84400
C348        C  0.43578538  0.51119272  0.73997208     0.90700
C349        C  0.73716086  0.48542073  0.77176917    -0.05400
C350        C  0.72020251  0.49972990  0.80185384    -0.05300
C351        C  0.68443711  0.50396849  0.80223676    -0.23500
C352        C  0.66472391  0.49473124  0.77225446     0.18800
C353        C  0.68127880  0.48084213  0.74163786     0.16000
C354        C  0.71712856  0.47572315  0.74180252    -0.18500
C355        C  0.66171579  0.47257585  0.71119626    -0.20300
C356        C  0.62614791  0.47820867  0.71102068    -0.12900
C357        C  0.60929620  0.49145492  0.74152604     0.03800
C358        C  0.62880333  0.49947097  0.77222518    -0.25000
H359        H  0.73454632  0.50831744  0.82507589     0.08900
H360        H  0.67225426  0.51499031  0.82583636     0.12500
H361        H  0.72925941  0.46403245  0.71854576     0.12400
H362        H  0.67395311  0.46201429  0.68740672     0.12200
H363        H  0.61168868  0.47166634  0.68713605     0.12700
H364        H  0.61612547  0.50995487  0.79582499     0.14700
C365        C  0.39778936  0.51392489  0.73979748    -0.05400
C366        C  0.38070504  0.53362416  0.71393437    -0.05300
C367        C  0.34478432  0.53649715  0.71415555    -0.23500
C368        C  0.32526513  0.51908548  0.73977316     0.18800
C369        C  0.34222322  0.49851326  0.76528801     0.16000
C370        C  0.37830433  0.49642160  0.76543000    -0.18500
C371        C  0.32281722  0.48028509  0.79021322    -0.20300
C372        C  0.28696781  0.48277810  0.79032259    -0.12900
C373        C  0.26959692  0.50402558  0.76589144     0.03800
C374        C  0.28915882  0.52196264  0.74042185    -0.25000
H375        H  0.39520105  0.54728038  0.69389600     0.08900
H376        H  0.33227256  0.55226734  0.69423308     0.12500
H377        H  0.39122725  0.48073397  0.78517667     0.12400
H378        H  0.33537526  0.46397914  0.80963907     0.12200
H379        H  0.27285643  0.46781846  0.80957799     0.12700
H380        H  0.27644265  0.53869837  0.72152051     0.14700
C381        C  0.15468287  0.52007780  0.70536357    -0.05400
C382        C  0.13284598  0.54864836  0.70135580    -0.05300
C383        C  0.11005140  0.55037525  0.67251640    -0.23500
C384        C  0.10818283  0.52315198  0.64760668     0.18800
C385        C  0.13021056  0.49433137  0.65131048     0.16000
C386        C  0.15370701  0.49320169  0.67989657    -0.18500
C387        C  0.12759992  0.46670162  0.62698931    -0.20300
C388        C  0.10301892  0.46733064  0.59966469    -0.12900
C389        C  0.08088057  0.49579112  0.59577731     0.03800
C390        C  0.08399553  0.52387473  0.61967195    -0.25000
H391        H  0.13315424  0.56944834  0.72092839     0.08900
H392        H  0.09330797  0.57259434  0.67019832     0.12500
H393        H  0.17010669  0.47084011  0.68328404     0.12400
H394        H  0.14414841  0.44435224  0.62946455     0.12200
H395        H  0.10123139  0.44537886  0.58162766     0.12700
H396        H  0.06693103  0.54585050  0.61722650     0.14700
C397        C  0.07274453  0.51395793  0.93848589    -0.05400
C398        C  0.07251856  0.54621969  0.92186431    -0.05300
C399        C  0.09405684  0.55260723  0.89275754    -0.23500
C400        C  0.11658357  0.52700066  0.87997060     0.18800
C401        C  0.11793585  0.49483922  0.89722635     0.16000
C402        C  0.09581443  0.48842014  0.92613480    -0.18500
C403        C  0.14103784  0.46948455  0.88489498    -0.20300
C404        C  0.16189479  0.47558483  0.85516824    -0.12900
C405        C  0.15968093  0.50691520  0.83701756     0.03800
C406        C  0.13725055  0.53272770  0.84978849    -0.25000
H407        H  0.05506072  0.56633392  0.93084524     0.08900
H408        H  0.09282661  0.57748063  0.88001094     0.12500
H409        H  0.09649971  0.46353841  0.93892893     0.12400
H410        H  0.14256190  0.44474100  0.89785970     0.12200
H411        H  0.17883591  0.45531619  0.84543373     0.12700
H412        H  0.13551879  0.55696242  0.83581332     0.14700
C413        C  0.93557353  0.47566249  0.60210635    -0.05400
C414        C  0.93755619  0.44434225  0.62042337    -0.05300
C415        C  0.91693233  0.43853012  0.65039369    -0.23500
C416        C  0.89353316  0.46374445  0.66233263     0.18800
C417        C  0.89053968  0.49494860  0.64349867     0.16000
C418        C  0.91180072  0.50085316  0.61376481    -0.18500
C419        C  0.86653896  0.51983490  0.65494961    -0.20300
C420        C  0.84612383  0.51411423  0.68510245    -0.12900
C421        C  0.84967399  0.48367368  0.70464191     0.03800
C422        C  0.87334213  0.45844937  0.69297693    -0.25000
H423        H  0.95571504  0.42459034  0.61209093     0.08900
H424        H  0.91946435  0.41439889  0.66437925     0.12500
H425        H  0.90984454  0.52502478  0.59972773     0.12400
H426        H  0.86376974  0.54383669  0.64078639     0.12200
H427        H  0.82820454  0.53394949  0.69383943     0.12700
H428        H  0.87604597  0.43481571  0.70784448     0.14700
C429        C  0.84987259  0.46725017  0.83623257    -0.05400
C430        C  0.86893646  0.43720794  0.84268087    -0.05300
C431        C  0.89136903  0.43551580  0.87190071    -0.23500
C432        C  0.89576429  0.46420527  0.89461017     0.18800
C433        C  0.87628002  0.49441214  0.88856027     0.16000
C434        C  0.85307074  0.49555421  0.85971655    -0.18500
C435        C  0.88129321  0.52336772  0.91065210    -0.20300
C436        C  0.90594821  0.52276450  0.93789308    -0.12900
C437        C  0.92586045  0.49306182  0.94394687     0.03800
C438        C  0.92012132  0.46360253  0.92246149    -0.25000
H439        H  0.86693839  0.41530716  0.82460294     0.08900
H440        H  0.90608728  0.41214912  0.87606251     0.12500
H441        H  0.83877984  0.51898795  0.85441780     0.12400
H442        H  0.86664439  0.54676579  0.90638704     0.12200
H443        H  0.90965899  0.54577679  0.95403213     0.12700
H444        H  0.93531561  0.44053078  0.92665829     0.14700
C445        C  0.51172735  0.73956720  0.73425843    -0.05400
C446        C  0.49034182  0.72424038  0.70815433    -0.05300
C447        C  0.48597479  0.68866240  0.70633661    -0.23500
C448        C  0.50204303  0.66730878  0.73118737     0.18800
C449        C  0.52222395  0.68202053  0.75876934     0.16000
C450        C  0.52730385  0.71799861  0.75992688    -0.18500
C451        C  0.53709598  0.66034237  0.78443921    -0.20300
C452        C  0.53243433  0.62455114  0.78232926    -0.12900
C453        C  0.51354455  0.60975918  0.75404443     0.03800
C454        C  0.49824012  0.63143709  0.72872898    -0.25000
H455        H  0.47661470  0.73970928  0.68893471     0.08900
H456        H  0.46984257  0.67784230  0.68545050     0.12500
H457        H  0.54388574  0.72892919  0.78032422     0.12400
H458        H  0.55243617  0.67103027  0.80602890     0.12200
H459        H  0.54442336  0.60835056  0.80218609     0.12700
H460        H  0.48317492  0.62032920  0.70711577     0.14700
C461        C  0.47239558  0.27036591  0.73880727    -0.05400
C462        C  0.46084803  0.28674591  0.77054663    -0.05300
C463        C  0.46304311  0.32238130  0.77511659    -0.23500
C464        C  0.47612450  0.34280600  0.74776679     0.18800
C465        C  0.48613795  0.32718469  0.71499588     0.16000
C466        C  0.48443631  0.29111301  0.71075951    -0.18500
C467        C  0.49818641  0.34793187  0.68724667    -0.20300
C468        C  0.50094956  0.38359888  0.69221366    -0.12900
C469        C  0.49222293  0.39923480  0.72518441     0.03800
C470        C  0.47951457  0.37856369  0.75278556    -0.25000
H471        H  0.45008981  0.27200987  0.79218953     0.08900
H472        H  0.45460479  0.33394582  0.80017189     0.12500
H473        H  0.49346251  0.27929408  0.68608123     0.12400
H474        H  0.50570357  0.33656801  0.66179004     0.12200
H475        H  0.51061027  0.39889965  0.67040410     0.12700
H476        H  0.47217009  0.39029128  0.77814599     0.14700
C477        C  0.46079128  0.15890066  0.66732088    -0.05400
C478        C  0.43383909  0.13512432  0.66424324    -0.05300
C479        C  0.43214923  0.11234025  0.63503901    -0.23500
C480        C  0.45789981  0.11235202  0.60874548     0.18800
C481        C  0.48469054  0.13677463  0.61111604     0.16000
C482        C  0.48566268  0.16028996  0.64009796    -0.18500
C483        C  0.51095517  0.13613305  0.58540605    -0.20300
C484        C  0.51148001  0.11074507  0.55853459    -0.12900
C485        C  0.48546714  0.08578888  0.55637075     0.03800
C486        C  0.45816083  0.08738136  0.58109154    -0.25000
H487        H  0.41462505  0.13350680  0.68516543     0.08900
H488        H  0.41145586  0.09382878  0.63376999     0.12500
H489        H  0.50686961  0.17813009  0.64269365     0.12400
H490        H  0.53167697  0.15461946  0.58670815     0.12200
H491        H  0.53264203  0.11033312  0.53967404     0.12700
H492        H  0.43802324  0.06823205  0.57987631     0.14700
C493        C  0.47546277  0.06862498  0.89859109    -0.05400
C494        C  0.44577158  0.06411508  0.87767306    -0.05300
C495        C  0.44016421  0.08419011  0.84740920    -0.23500
C496        C  0.46389460  0.10952521  0.83786303     0.18800
C497        C  0.49351712  0.11477073  0.85912010     0.16000
C498        C  0.49930276  0.09404271  0.88907515    -0.18500
C499        C  0.51684215  0.14066231  0.85003473    -0.20300
C500        C  0.51099215  0.16101505  0.82001633    -0.12900
C501        C  0.48203414  0.15547982  0.79828467     0.03800
C502        C  0.45851779  0.12968036  0.80742347    -0.25000
H503        H  0.42717917  0.04455984  0.88432740     0.08900
H504        H  0.41729009  0.07988220  0.83146621     0.12500
H505        H  0.52220807  0.09787725  0.90513268     0.12400
H506        H  0.53961656  0.14512347  0.86608691     0.12200
H507        H  0.52949250  0.18064226  0.81328872     0.12700
H508        H  0.43593879  0.12552451  0.79095366     0.14700
C509        C  0.51530783  0.93996958  0.56811653    -0.05400
C510        C  0.54633752  0.94370220  0.58704078    -0.05300
C511        C  0.55389019  0.92274230  0.61615024    -0.23500
C512        C  0.53077101  0.89725065  0.62665741     0.18800
C513        C  0.49980474  0.89265011  0.60737711     0.16000
C514        C  0.49207381  0.91428377  0.57848710    -0.18500
C515        C  0.47706097  0.86660755  0.61749896    -0.20300
C516        C  0.48456898  0.84585732  0.64686458    -0.12900
C517        C  0.51472687  0.85100051  0.66690991     0.03800
C518        C  0.53791070  0.87659809  0.65639711    -0.25000
H519        H  0.56463703  0.96328436  0.57966246     0.08900
H520        H  0.57779437  0.92655680  0.63051743     0.12500
H521        H  0.46819429  0.91093027  0.56392126     0.12400
H522        H  0.45327295  0.86256364  0.60299386     0.12200
H523        H  0.46618389  0.82652713  0.65473509     0.12700
H524        H  0.56130360  0.88062230  0.67163230     0.14700
C525        C  0.50429544  0.92494987  0.91016945    -0.05400
C526        C  0.48005633  0.89827545  0.90862898    -0.05300
C527        C  0.48174256  0.87303095  0.88163712    -0.23500
C528        C  0.50728947  0.87437299  0.85518864     0.18800
C529        C  0.53202962  0.90089022  0.85666667     0.16000
C530        C  0.53067382  0.92568084  0.88439400    -0.21400
C531        C  0.55698538  0.90285615  0.82968352    -0.20300
C532        C  0.55663865  0.87960293  0.80083410    -0.12900
C533        C  0.53169632  0.85358695  0.79863466     0.03800
C534        C  0.50761860  0.85055870  0.82649182    -0.25000
H535        H  0.45960225  0.89705286  0.92824410     0.08900
H536        H  0.46254212  0.85294435  0.88094961     0.12500
H537        H  0.54931752  0.94631106  0.88506377     0.12400
H538        H  0.57612375  0.92300593  0.83031208     0.12200
H539        H  0.57542527  0.88241394  0.77966775     0.12700
H540        H  0.48794060  0.83097284  0.82474414     0.14700
loop_ 
_geom_bond_atom_site_label_1 
_geom_bond_atom_site_label_2 
_geom_bond_distance 
_geom_bond_site_symmetry_2 
_ccdc_geom_bond_type 
O1           C11   1.279       .  A
O1         Cu279   2.012   1_564  S
O2           C12   1.277       .  A
O2           Cu9   2.002       .  S
O3           C13   1.278       .  A
O3         Cu279   2.010   1_554  S
O4           C14   1.279       .  A
O4           Cu9   2.018   1_565  S
O5           C14   1.279       .  A
O5         Cu280   2.017       .  S
O6           C13   1.280       .  A
O6          Cu10   2.029   1_544  S
O7           C12   1.280       .  A
O7         Cu280   2.022   1_545  S
O8           C11   1.279       .  A
O8          Cu10   2.018   1_554  S
Cu9         O271   2.012   1_545  S
Cu9         O273   2.010       .  S
Cu9        Cu280   2.370   1_545  S
Cu10        O275   2.017       .  S
Cu10        O277   2.022   1_565  S
Cu10       Cu279   2.370   1_565  S
C11         C239   1.483       .  S
C12         C223   1.480       .  S
C13         C215   1.487       .  S
C14         C255   1.484       .  S
C15         C191   1.501       .  S
C15          C16   1.412       .  A
C15          C20   1.416       .  A
C16          C17   1.402       .  A
C16          H21   1.083       .  S
C17         C231   1.482       .  S
C17          C18   1.398       .  A
C18          C19   1.401       .  A
C18          H22   1.085       .  S
C19         C207   1.483       .  S
C19          C20   1.410       .  A
C20          H23   1.082       .  S
C24         C175   1.504       .  S
C24          C25   1.414       .  A
C24          C29   1.415       .  A
C25          C26   1.411       .  A
C25          H30   1.082       .  S
C26         C263   1.487       .  S
C26          C27   1.403       .  A
C27          C28   1.399       .  A
C27          H31   1.084       .  S
C28         C247   1.486       .  S
C28          C29   1.403       .  A
C29          H32   1.082       .  S
O33          C43   1.279       .  A
O33        Cu311   2.015       .  S
O34          C44   1.280       .  A
O34         Cu41   2.018   1_655  S
O35          C45   1.280       .  A
O35        Cu311   2.021   1_655  S
O36          C46   1.278       .  A
O36         Cu41   2.011       .  S
O37          C46   1.280       .  A
O37         Cu42   2.019   1_455  S
O38          C45   1.279       .  A
O38        Cu312   2.014       .  S
O39          C44   1.278       .  A
O39         Cu42   2.011       .  S
O40          C43   1.279       .  A
O40        Cu312   2.014   1_455  S
Cu41        O303   2.015   1_554  S
Cu41        O305   2.021   1_454  S
Cu41        Cu42   2.370   1_455  S
Cu42        O308   2.014   1_554  S
Cu42        O310   2.014   1_654  S
C43         C127   1.483       .  S
C44         C143   1.483       .  S
C45         C167   1.488       .  S
C46         C119   1.484       .  S
C47         C103   1.496       .  S
C47          C48   1.412       .  A
C47          C52   1.412       .  A
C48          C49   1.403       .  A
C48          H53   1.083       .  S
C49         C135   1.479       .  S
C49          C50   1.399       .  A
C50          C51   1.400       .  A
C50          H54   1.085       .  S
C51         C111   1.479       .  S
C51          C52   1.406       .  A
C52          H55   1.083       .  S
C56          C79   1.501       .  S
C56          C57   1.414       .  A
C56          C61   1.413       .  A
C57          C58   1.405       .  A
C57          H62   1.082       .  S
C58         C159   1.480       .  S
C58          C59   1.400       .  A
C59          C60   1.401       .  A
C59          H63   1.085       .  S
C60         C151   1.483       .  S
C60          C61   1.405       .  A
C61          H64   1.082       .  S
O65          C75   1.280       .  A
O65         Cu73   2.032       .  S
O66          C76   1.281       .  A
O66         Cu73   2.027       .  S
O67          C77   1.278       .  A
O67         Cu73   2.015       .  S
O68          C78   1.279       .  A
O68         Cu73   2.014       .  S
O69          C78   1.279       .  A
O69         Cu74   2.017       .  S
O70          C77   1.280       .  A
O70         Cu74   2.021       .  S
O71          C76   1.278       .  A
O71         Cu74   2.013       .  S
O72          C75   1.279       .  A
O72         Cu74   2.013       .  S
Cu73        Cu74   2.371       .  S
C75         C183   1.484       .  S
C76         C199   1.487       .  S
C77          C87   1.483       .  S
C78          C95   1.481       .  S
C79          C80   1.410       .  A
C79          C84   1.413       .  A
C80          C81   1.400       .  A
C80          H89   1.082       .  S
C81          C82   1.402       .  A
C81          H90   1.083       .  S
C82          C88   1.408       .  A
C82          C83   1.412       .  A
C83          C85   1.403       .  A
C83          C84   1.407       .  A
C84          H91   1.082       .  S
C85          C86   1.399       .  A
C85          H92   1.083       .  S
C86          C87   1.405       .  A
C86          H93   1.083       .  S
C87          C88   1.408       .  A
C88          H94   1.084       .  S
C95          C96   1.405       .  A
C95         C100   1.406       .  A
C96          C97   1.401       .  A
C96         H105   1.083       .  S
C97          C98   1.404       .  A
C97         H106   1.084       .  S
C98         C104   1.408       .  A
C98          C99   1.413       .  A
C99         C101   1.400       .  A
C99         C100   1.405       .  A
C100        H107   1.085       .  S
C101        C102   1.397       .  A
C101        H108   1.084       .  S
C102        C103   1.409       .  A
C102        H109   1.082       .  S
C103        C104   1.412       .  A
C104        H110   1.084       .  S
C111        C112   1.404       .  A
C111        C116   1.405       .  A
C112        C113   1.397       .  A
C112        H121   1.083       .  S
C113        C114   1.403       .  A
C113        H122   1.083       .  S
C114        C120   1.406       .  A
C114        C115   1.415       .  A
C115        C117   1.402       .  A
C115        C116   1.407       .  A
C116        H123   1.084       .  S
C117        C118   1.399       .  A
C117        H124   1.083       .  S
C118        C119   1.407       .  A
C118        H125   1.083       .  S
C119        C120   1.407       .  A
C120        H126   1.083       .  S
C127        C128   1.406       .  A
C127        C132   1.408       .  A
C128        C129   1.398       .  A
C128        H137   1.083       .  S
C129        C130   1.402       .  A
C129        H138   1.084       .  S
C130        C136   1.405       .  A
C130        C131   1.414       .  A
C131        C133   1.403       .  A
C131        C132   1.406       .  A
C132        H139   1.084       .  S
C133        C134   1.398       .  A
C133        H140   1.084       .  S
C134        C135   1.404       .  A
C134        H141   1.083       .  S
C135        C136   1.405       .  A
C136        H142   1.085       .  S
C143        C144   1.406       .  A
C143        C148   1.408       .  A
C144        C145   1.399       .  A
C144        H153   1.083       .  S
C145        C146   1.402       .  A
C145        H154   1.083       .  S
C146        C152   1.406       .  A
C146        C147   1.414       .  A
C147        C149   1.403       .  A
C147        C148   1.407       .  A
C148        H155   1.084       .  S
C149        C150   1.399       .  A
C149        H156   1.083       .  S
C150        C151   1.404       .  A
C150        H157   1.084       .  S
C151        C152   1.406       .  A
C152        H158   1.084       .  S
C159        C160   1.403       .  A
C159        C164   1.405       .  A
C160        C161   1.400       .  A
C160        H169   1.083       .  S
C161        C162   1.404       .  A
C161        H170   1.084       .  S
C162        C168   1.408       .  A
C162        C163   1.414       .  A
C163        C165   1.402       .  A
C163        C164   1.407       .  A
C164        H171   1.085       .  S
C165        C166   1.399       .  A
C165        H172   1.084       .  S
C166        C167   1.407       .  A
C166        H173   1.083       .  S
C167        C168   1.409       .  A
C168        H174   1.084       .  S
C175        C176   1.410       .  A
C175        C180   1.416       .  A
C176        C177   1.395       .  A
C176        H185   1.081       .  S
C177        C178   1.398       .  A
C177        H186   1.084       .  S
C178        C184   1.405       .  A
C178        C179   1.413       .  A
C179        C181   1.407       .  A
C179        C180   1.414       .  A
C180        H187   1.083       .  S
C181        C182   1.405       .  A
C181        H188   1.083       .  S
C182        C183   1.406       .  A
C182        H189   1.083       .  S
C183        C184   1.405       .  A
C184        H190   1.084       .  S
C191        C192   1.411       .  A
C191        C196   1.412       .  A
C192        C193   1.397       .  A
C192        H201   1.082       .  S
C193        C194   1.399       .  A
C193        H202   1.083       .  S
C194        C200   1.407       .  A
C194        C195   1.413       .  A
C195        C197   1.403       .  A
C195        C196   1.411       .  A
C196        H203   1.082       .  S
C197        C198   1.401       .  A
C197        H204   1.083       .  S
C198        C199   1.407       .  A
C198        H205   1.083       .  S
C199        C200   1.406       .  A
C200        H206   1.084       .  S
C207        C208   1.405       .  A
C207        C212   1.405       .  A
C208        C209   1.398       .  A
C208        H217   1.084       .  S
C209        C210   1.403       .  A
C209        H218   1.083       .  S
C210        C216   1.409       .  A
C210        C211   1.415       .  A
C211        C213   1.402       .  A
C211        C212   1.409       .  A
C212        H219   1.084       .  S
C213        C214   1.399       .  A
C213        H220   1.083       .  S
C214        C215   1.407       .  A
C214        H221   1.083       .  S
C215        C216   1.408       .  A
C216        H222   1.084       .  S
C223        C224   1.405       .  A
C223        C228   1.407       .  A
C224        C225   1.398       .  A
C224        H233   1.083       .  S
C225        C226   1.403       .  A
C225        H234   1.083       .  S
C226        C232   1.404       .  A
C226        C227   1.414       .  A
C227        C229   1.403       .  A
C227        C228   1.405       .  A
C228        H235   1.084       .  S
C229        C230   1.398       .  A
C229        H236   1.083       .  S
C230        C231   1.404       .  A
C230        H237   1.083       .  S
C231        C232   1.406       .  A
C232        H238   1.084       .  S
C239        C240   1.406       .  A
C239        C244   1.408       .  A
C240        C241   1.397       .  A
C240        H249   1.083       .  S
C241        C242   1.401       .  A
C241        H250   1.083       .  S
C242        C248   1.406       .  A
C242        C243   1.414       .  A
C243        C245   1.403       .  A
C243        C244   1.408       .  A
C244        H251   1.084       .  S
C245        C246   1.400       .  A
C245        H252   1.083       .  S
C246        C247   1.405       .  A
C246        H253   1.083       .  S
C247        C248   1.406       .  A
C248        H254   1.084       .  S
C255        C256   1.406       .  A
C255        C260   1.407       .  A
C256        C257   1.399       .  A
C256        H265   1.083       .  S
C257        C258   1.403       .  A
C257        H266   1.083       .  S
C258        C264   1.408       .  A
C258        C259   1.414       .  A
C259        C261   1.402       .  A
C259        C260   1.407       .  A
C260        H267   1.084       .  S
C261        C262   1.398       .  A
C261        H268   1.083       .  S
C262        C263   1.407       .  A
C262        H269   1.083       .  S
C263        C264   1.406       .  A
C264        H270   1.084       .  S
O271        C281   1.279       .  A
O272        C282   1.277       .  A
O272       Cu279   2.002       .  S
O273        C283   1.278       .  A
O274        C284   1.279       .  A
O274       Cu279   2.018   1_565  S
O275        C284   1.279       .  A
O276        C283   1.280       .  A
O276       Cu280   2.029   1_545  S
O277        C282   1.280       .  A
O278        C281   1.279       .  A
O278       Cu280   2.018       .  S
C281        C509   1.483       .  S
C282        C493   1.480       .  S
C283        C485   1.487       .  S
C284        C525   1.484       .  S
C285        C461   1.501       .  S
C285        C286   1.412       .  A
C285        C290   1.416       .  A
C286        C287   1.402       .  A
C286        H291   1.083       .  S
C287        C501   1.482       .  S
C287        C288   1.398       .  A
C288        C289   1.401       .  A
C288        H292   1.085       .  S
C289        C477   1.483       .  S
C289        C290   1.410       .  A
C290        H293   1.082       .  S
C294        C445   1.504       .  S
C294        C295   1.414       .  A
C294        C299   1.415       .  A
C295        C296   1.411       .  A
C295        H300   1.082       .  S
C296        C533   1.487       .  S
C296        C297   1.403       .  A
C297        C298   1.399       .  A
C297        H301   1.084       .  S
C298        C517   1.486       .  S
C298        C299   1.403       .  A
C299        H302   1.082       .  S
O303        C313   1.279       .  A
O304        C314   1.280       .  A
O304       Cu311   2.018   1_655  S
O305        C315   1.280       .  A
O306        C316   1.278       .  A
O306       Cu311   2.011       .  S
O307        C316   1.280       .  A
O307       Cu312   2.019   1_455  S
O308        C315   1.279       .  A
O309        C314   1.278       .  A
O309       Cu312   2.011       .  S
O310        C313   1.279       .  A
Cu311      Cu312   2.370   1_455  S
C313        C397   1.483       .  S
C314        C413   1.483       .  S
C315        C437   1.488       .  S
C316        C389   1.484       .  S
C317        C373   1.496       .  S
C317        C318   1.412       .  A
C317        C322   1.412       .  A
C318        C319   1.403       .  A
C318        H323   1.083       .  S
C319        C405   1.479       .  S
C319        C320   1.399       .  A
C320        C321   1.400       .  A
C320        H324   1.085       .  S
C321        C381   1.479       .  S
C321        C322   1.406       .  A
C322        H325   1.083       .  S
C326        C349   1.501       .  S
C326        C327   1.414       .  A
C326        C331   1.413       .  A
C327        C328   1.405       .  A
C327        H332   1.082       .  S
C328        C429   1.480       .  S
C328        C329   1.400       .  A
C329        C330   1.401       .  A
C329        H333   1.085       .  S
C330        C421   1.483       .  S
C330        C331   1.405       .  A
C331        H334   1.082       .  S
O335        C345   1.280       .  A
O335       Cu343   2.032       .  S
O336        C346   1.281       .  A
O336       Cu343   2.027       .  S
O337        C347   1.278       .  A
O337       Cu343   2.015       .  S
O338        C348   1.279       .  A
O338       Cu343   2.014       .  S
O339        C348   1.279       .  A
O339       Cu344   2.017       .  S
O340        C347   1.280       .  A
O340       Cu344   2.021       .  S
O341        C346   1.278       .  A
O341       Cu344   2.013       .  S
O342        C345   1.279       .  A
O342       Cu344   2.013       .  S
Cu343      Cu344   2.371       .  S
C345        C453   1.484       .  S
C346        C469   1.487       .  S
C347        C357   1.483       .  S
C348        C365   1.481       .  S
C349        C350   1.410       .  A
C349        C354   1.413       .  A
C350        C351   1.400       .  A
C350        H359   1.082       .  S
C351        C352   1.402       .  A
C351        H360   1.083       .  S
C352        C358   1.408       .  A
C352        C353   1.412       .  A
C353        C355   1.403       .  A
C353        C354   1.407       .  A
C354        H361   1.082       .  S
C355        C356   1.399       .  A
C355        H362   1.083       .  S
C356        C357   1.405       .  A
C356        H363   1.083       .  S
C357        C358   1.408       .  A
C358        H364   1.084       .  S
C365        C366   1.405       .  A
C365        C370   1.406       .  A
C366        C367   1.401       .  A
C366        H375   1.083       .  S
C367        C368   1.404       .  A
C367        H376   1.084       .  S
C368        C374   1.408       .  A
C368        C369   1.413       .  A
C369        C371   1.400       .  A
C369        C370   1.405       .  A
C370        H377   1.085       .  S
C371        C372   1.397       .  A
C371        H378   1.084       .  S
C372        C373   1.409       .  A
C372        H379   1.082       .  S
C373        C374   1.412       .  A
C374        H380   1.084       .  S
C381        C382   1.404       .  A
C381        C386   1.405       .  A
C382        C383   1.397       .  A
C382        H391   1.083       .  S
C383        C384   1.403       .  A
C383        H392   1.083       .  S
C384        C390   1.406       .  A
C384        C385   1.415       .  A
C385        C387   1.402       .  A
C385        C386   1.407       .  A
C386        H393   1.084       .  S
C387        C388   1.399       .  A
C387        H394   1.083       .  S
C388        C389   1.407       .  A
C388        H395   1.083       .  S
C389        C390   1.407       .  A
C390        H396   1.083       .  S
C397        C398   1.406       .  A
C397        C402   1.408       .  A
C398        C399   1.398       .  A
C398        H407   1.083       .  S
C399        C400   1.402       .  A
C399        H408   1.084       .  S
C400        C406   1.405       .  A
C400        C401   1.414       .  A
C401        C403   1.403       .  A
C401        C402   1.406       .  A
C402        H409   1.084       .  S
C403        C404   1.398       .  A
C403        H410   1.084       .  S
C404        C405   1.404       .  A
C404        H411   1.083       .  S
C405        C406   1.405       .  A
C406        H412   1.085       .  S
C413        C414   1.406       .  A
C413        C418   1.408       .  A
C414        C415   1.399       .  A
C414        H423   1.083       .  S
C415        C416   1.402       .  A
C415        H424   1.083       .  S
C416        C422   1.406       .  A
C416        C417   1.414       .  A
C417        C419   1.403       .  A
C417        C418   1.407       .  A
C418        H425   1.084       .  S
C419        C420   1.399       .  A
C419        H426   1.083       .  S
C420        C421   1.404       .  A
C420        H427   1.084       .  S
C421        C422   1.406       .  A
C422        H428   1.084       .  S
C429        C430   1.403       .  A
C429        C434   1.405       .  A
C430        C431   1.400       .  A
C430        H439   1.083       .  S
C431        C432   1.404       .  A
C431        H440   1.084       .  S
C432        C438   1.408       .  A
C432        C433   1.414       .  A
C433        C435   1.402       .  A
C433        C434   1.407       .  A
C434        H441   1.085       .  S
C435        C436   1.399       .  A
C435        H442   1.084       .  S
C436        C437   1.407       .  A
C436        H443   1.083       .  S
C437        C438   1.409       .  A
C438        H444   1.084       .  S
C445        C446   1.410       .  A
C445        C450   1.416       .  A
C446        C447   1.395       .  A
C446        H455   1.081       .  S
C447        C448   1.398       .  A
C447        H456   1.084       .  S
C448        C454   1.405       .  A
C448        C449   1.413       .  A
C449        C451   1.407       .  A
C449        C450   1.414       .  A
C450        H457   1.083       .  S
C451        C452   1.405       .  A
C451        H458   1.083       .  S
C452        C453   1.406       .  A
C452        H459   1.083       .  S
C453        C454   1.405       .  A
C454        H460   1.084       .  S
C461        C462   1.411       .  A
C461        C466   1.412       .  A
C462        C463   1.397       .  A
C462        H471   1.082       .  S
C463        C464   1.399       .  A
C463        H472   1.083       .  S
C464        C470   1.407       .  A
C464        C465   1.413       .  A
C465        C467   1.403       .  A
C465        C466   1.411       .  A
C466        H473   1.082       .  S
C467        C468   1.401       .  A
C467        H474   1.083       .  S
C468        C469   1.407       .  A
C468        H475   1.083       .  S
C469        C470   1.406       .  A
C470        H476   1.084       .  S
C477        C478   1.405       .  A
C477        C482   1.405       .  A
C478        C479   1.398       .  A
C478        H487   1.084       .  S
C479        C480   1.403       .  A
C479        H488   1.083       .  S
C480        C486   1.409       .  A
C480        C481   1.415       .  A
C481        C483   1.402       .  A
C481        C482   1.409       .  A
C482        H489   1.084       .  S
C483        C484   1.399       .  A
C483        H490   1.083       .  S
C484        C485   1.407       .  A
C484        H491   1.083       .  S
C485        C486   1.408       .  A
C486        H492   1.084       .  S
C493        C494   1.405       .  A
C493        C498   1.407       .  A
C494        C495   1.398       .  A
C494        H503   1.083       .  S
C495        C496   1.403       .  A
C495        H504   1.083       .  S
C496        C502   1.404       .  A
C496        C497   1.414       .  A
C497        C499   1.403       .  A
C497        C498   1.405       .  A
C498        H505   1.084       .  S
C499        C500   1.398       .  A
C499        H506   1.083       .  S
C500        C501   1.404       .  A
C500        H507   1.083       .  S
C501        C502   1.406       .  A
C502        H508   1.084       .  S
C509        C510   1.406       .  A
C509        C514   1.408       .  A
C510        C511   1.397       .  A
C510        H519   1.083       .  S
C511        C512   1.401       .  A
C511        H520   1.083       .  S
C512        C518   1.406       .  A
C512        C513   1.414       .  A
C513        C515   1.403       .  A
C513        C514   1.408       .  A
C514        H521   1.084       .  S
C515        C516   1.400       .  A
C515        H522   1.083       .  S
C516        C517   1.405       .  A
C516        H523   1.083       .  S
C517        C518   1.406       .  A
C518        H524   1.084       .  S
C525        C526   1.406       .  A
C525        C530   1.407       .  A
C526        C527   1.399       .  A
C526        H535   1.083       .  S
C527        C528   1.403       .  A
C527        H536   1.083       .  S
C528        C534   1.408       .  A
C528        C529   1.414       .  A
C529        C531   1.402       .  A
C529        C530   1.407       .  A
C530        H537   1.084       .  S
C531        C532   1.398       .  A
C531        H538   1.083       .  S
C532        C533   1.407       .  A
C532        H539   1.083       .  S
C533        C534   1.406       .  A
C534        H540   1.084       .  S
