geometry optimzed in LAMMPS
_audit_creation_date              2020-11-30 
_audit_creation_method            'lammps2cif' 
_symmetry_space_group_name_H-M    'P1' 
_symmetry_Int_Tables_number       1 
_symmetry_cell_setting            triclinic 
loop_ 
_symmetry_equiv_pos_as_xyz 
  x,y,z 
_cell_length_a                    48.53793358 
_cell_length_b                    48.28366115636955 
_cell_length_c                    44.044931766027084 
_cell_angle_alpha                 86.29297234935969 
_cell_angle_beta                  93.55035213680264 
_cell_angle_gamma                 107.14834246043462 
loop_ 
_atom_site_label 
_atom_site_type_symbol 
_atom_site_fract_x 
_atom_site_fract_y 
_atom_site_fract_z 
_atom_site_charge 
O1          O  0.47571985  0.28515056  0.49626763    -0.73700
O2          O  0.47301397  0.20480933  0.99860847    -0.73700
O3          O  0.47546509  0.24407135  0.04118468    -0.73800
O4          O  0.47364160  0.24652735  0.45383974    -0.73800
O5          O  0.02148540  0.25867726  0.45529773    -0.73800
O6          O  0.02329520  0.25602401  0.04260861    -0.74700
O7          O  0.02115229  0.21746412  0.00020404    -0.73700
O8          O  0.02386842  0.29769088  0.49800955    -0.73800
Ni9        Ni  0.47278145  0.24461832  0.99746207     1.25400
Ni10       Ni  0.02410304  0.25797712  0.49904445     1.25400
C11         C  0.00025477  0.30451880  0.49686968     0.88500
C12         C  0.99666262  0.19800525  0.99990714     0.88400
C13         C  0.49965775  0.24968087  0.05652148     0.88400
C14         C  0.49730990  0.25308775  0.43993361     0.88600
O15         O  0.47504931  0.20278262  0.24968565    -0.73700
O16         O  0.47646153  0.28291070  0.24429936    -0.73700
O17         O  0.47617487  0.24330153  0.20361052    -0.73800
O18         O  0.47532483  0.24304760  0.29051641    -0.73800
O19         O  0.02316712  0.25599584  0.29360905    -0.73800
O20         O  0.02399626  0.25583475  0.20639868    -0.73700
O21         O  0.02461679  0.29611224  0.24719680    -0.73700
O22         O  0.02319028  0.21625766  0.25310573    -0.73800
Ni23       Ni  0.47404831  0.24247358  0.24694401     1.25400
Ni24       Ni  0.02544813  0.25654049  0.25014810     1.25400
C25         C  0.99897016  0.19643753  0.25231156     0.88500
C26         C  0.00081391  0.30260092  0.24496170     0.88400
C27         C  0.00016071  0.24959578  0.19037706     0.88400
C28         C  0.99903538  0.24976353  0.30664587     0.88600
O29         O  0.42399210  0.47234836  0.48615695    -0.80200
O30         O  0.05969783  0.48924404  0.49194805    -0.64900
O31         O  0.48111801  0.47971691  0.00747737    -1.11500
C32         C  0.50556349  0.08084793  0.00395667     1.06700
O33         O  0.08009878  0.03165387  0.01229663    -0.78100
O34         O  0.03889253  0.03169584  0.05119199    -0.65600
Ni35       Ni  0.45275946  0.45281971  0.48294130     1.34900
C36         C  0.01332622  0.02408570  0.06036099     0.85500
O37         O  0.01603875  0.44379626  0.50752477    -0.78600
O38         O  0.47643745  0.42795308  0.47802418    -0.88900
C39         C  0.08181312  0.50865234  0.00075930     0.85000
O40         O  0.46639446  0.47511386  0.44686812    -0.67100
O41         O  0.02842897  0.07790481  0.01769296    -0.86400
C42         C  0.99207234  0.48137366  0.43806889     0.85900
C43         C  0.99793201  0.42369490  0.49336970     1.07400
H44         H  0.02567070  0.02991077  0.46969053     0.39200
O45         O  0.02289516  0.02439486  0.49101599    -1.09000
O46         O  0.49154465  0.02468443  0.04279234    -0.65700
Ni47       Ni  0.48370013  0.01985850  0.99948147     1.26300
O48         O  0.01307639  0.47927679  0.45605664    -0.65900
O49         O  0.48716988  0.05997514  0.99129829    -0.78200
C50         C  0.42229086  0.99487303  0.49852565     0.85200
O51         O  0.44424223  0.01443768  0.00755305    -0.65400
Ni52       Ni  0.05175657  0.05214664  0.01411953     1.27400
Ni53       Ni  0.02020282  0.48415891  0.49936615     1.26100
H54         H  0.47796181  0.47382560  0.02868955     0.39800
O55         O  0.42548338  0.47288315  0.23418176    -0.80200
O56         O  0.06049324  0.48681133  0.24025717    -0.64900
O57         O  0.48199925  0.47778970  0.25606345    -1.11500
C58         C  0.50859225  0.07919841  0.25757636     1.06700
O59         O  0.08181007  0.02860050  0.26228200    -0.78100
O60         O  0.04057892  0.02745902  0.30257193    -0.65600
Ni61       Ni  0.45346116  0.45232372  0.23037770     1.34900
C62         C  0.01497561  0.02058314  0.31168445     0.85500
O63         O  0.01626737  0.44150813  0.25391165    -0.78600
O64         O  0.47638863  0.42665765  0.22447790    -0.88900
C65         C  0.08271711  0.50598072  0.24986600     0.85000
O66         O  0.46758921  0.47545357  0.19508296    -0.67100
O67         O  0.03102716  0.07530446  0.27144251    -0.86400
C68         C  0.99328363  0.48212778  0.18637922     0.85900
C69         C  0.99779950  0.42183515  0.23958430     1.07400
H70         H  0.02762599  0.02935210  0.22054549     0.39200
O71         O  0.02474149  0.02287653  0.24168524    -1.09000
O72         O  0.49340745  0.02154736  0.29398168    -0.65700
Ni73       Ni  0.48563931  0.01848388  0.25053127     1.26300
O74         O  0.01420748  0.47927562  0.20407692    -0.65900
O75         O  0.48990916  0.05891248  0.24434410    -0.78200
C76         C  0.42418771  0.99453169  0.24853929     0.85200
O77         O  0.44634809  0.01326768  0.25902391    -0.65400
Ni78       Ni  0.05380268  0.04925542  0.26607073     1.27400
Ni79       Ni  0.02111119  0.48210265  0.24770712     1.26100
H80         H  0.47868354  0.47103065  0.27694174     0.39800
O81         O  0.21972429  0.02373282  0.49980840    -0.73700
O82         O  0.29820420  0.02282518  0.50271144    -0.73700
O83         O  0.25784521  0.02370888  0.45706865    -0.73800
O84         O  0.26020836  0.02252275  0.04503990    -0.73800
O85         O  0.24451459  0.47453465  0.04684549    -0.73800
O86         O  0.24408161  0.47537688  0.45910152    -0.73700
O87         O  0.28400349  0.47476451  0.00507193    -0.73700
O88         O  0.20498499  0.47568879  0.00021265    -0.73800
Ni89       Ni  0.25943105  0.02492677  0.50106655     1.25400
Ni90       Ni  0.24395783  0.47339709  0.00291473     1.25400
C91         C  0.19913845  0.99981606  0.99936837     0.88500
C92         C  0.30410971  0.99861747  0.50419694     0.88400
C93         C  0.25093764  0.99966292  0.44354849     0.88400
C94         C  0.25257585  0.99824668  0.06051155     0.88600
O95         O  0.24654968  0.47565428  0.29752489    -0.73700
O96         O  0.24578620  0.47566094  0.20977090    -0.73700
O97         O  0.28560989  0.47586469  0.25559244    -0.73800
O98         O  0.20653182  0.47547642  0.25109147    -0.73800
O99         O  0.22054903  0.02389449  0.24771389    -0.73800
O100        O  0.29988226  0.02412696  0.25453788    -0.73700
O101        O  0.26099910  0.02404695  0.20718351    -0.73700
O102        O  0.25947587  0.02426508  0.29485971    -0.73800
Ni103      Ni  0.24563344  0.47398351  0.25364275     1.25400
Ni104      Ni  0.26072451  0.02580671  0.25097709     1.25400
C105        C  0.25294858  0.00011502  0.31061537     0.88500
C106        C  0.25360100  0.99983498  0.19394194     0.88400
C107        C  0.30611935  0.00004768  0.25575575     0.88400
C108        C  0.20044648  0.99968347  0.24834027     0.88600
C109        C  0.25133445  0.99985560  0.40950232    -0.04600
C110        C  0.23058341  0.00889617  0.39067291    -0.01700
C111        C  0.23121693  0.00913835  0.35846951     0.03300
C112        C  0.25249465  0.00016161  0.34464433    -0.04600
C113        C  0.27309539  0.49082675  0.36363645    -0.01700
C114        C  0.27241632  0.49061336  0.39581130     0.03300
C115        C  0.20769420  0.01667503  0.40439179     0.37900
C116        C  0.29580672  0.48270240  0.34994926     0.37900
C117        C  0.29382069  0.48126755  0.41483485     0.36300
C118        C  0.20943470  0.01790311  0.33948320     0.36300
N119        N  0.31082197  0.47374886  0.43006741    -0.38500
N120        N  0.19205010  0.02483458  0.32428639    -0.38500
N121        N  0.31414304  0.47643997  0.33916805    -0.37900
N122        N  0.18910219  0.02259040  0.41505265    -0.37900
C123        C  0.25310296  0.99810375  0.09474528    -0.04600
C124        C  0.27715952  0.51561492  0.11131277    -0.01700
C125        C  0.27714381  0.51656569  0.14345660     0.03300
C126        C  0.25348899  0.99948346  0.15977620    -0.04600
C127        C  0.22932404  0.98196337  0.14331570    -0.01700
C128        C  0.22904105  0.98148125  0.11112675     0.03300
C129        C  0.30280170  0.53153721  0.09537985     0.37900
C130        C  0.20406355  0.96521431  0.15938704     0.37900
C131        C  0.20328961  0.96470121  0.09488005     0.36300
C132        C  0.30226648  0.53462165  0.15961113     0.36300
N133        N  0.18250564  0.95128982  0.08227302    -0.38500
N134        N  0.32245531  0.54925649  0.17211017    -0.38500
N135        N  0.18393155  0.95187697  0.17222656    -0.37900
N136        N  0.32330784  0.54403337  0.08266178    -0.37900
C137        C  0.16932311  0.49945649  0.24656413    -0.04600
C138        C  0.16089086  0.02147894  0.22867464    -0.01700
C139        C  0.13228781  0.02292641  0.22906225     0.03300
C140        C  0.11160888  0.50215862  0.24656939    -0.04600
C141        C  0.11918175  0.47863335  0.26171028    -0.01700
C142        C  0.14799521  0.47755356  0.26230950     0.03300
C143        C  0.18107359  0.04207604  0.20916374     0.37900
C144        C  0.09739778  0.45565907  0.27707649     0.37900
C145        C  0.15560009  0.45435960  0.28021628     0.36300
C146        C  0.12359441  0.04526866  0.21071874     0.36300
N147        N  0.16154825  0.43579855  0.29450461    -0.38500
N148        N  0.11646950  0.06287566  0.19594976    -0.38500
N149        N  0.08005421  0.43705593  0.28900654    -0.37900
N150        N  0.19705590  0.05844016  0.19344578    -0.37900
C151        C  0.33714543  0.99964448  0.25664382    -0.04600
C152        C  0.35980479  0.02487835  0.24823248    -0.01700
C153        C  0.38843119  0.02356387  0.24674398     0.03300
C154        C  0.39493223  0.99712515  0.25320846    -0.04600
C155        C  0.37279409  0.47225181  0.26328338    -0.01700
C156        C  0.34423942  0.47339300  0.26508756     0.03300
C157        C  0.35411111  0.05235869  0.24016458     0.37900
C158        C  0.37975515  0.44555822  0.27259649     0.37900
C159        C  0.32274320  0.44740496  0.27610092     0.36300
C160        C  0.41101555  0.04940426  0.23749050     0.36300
N161        N  0.30580431  0.42654564  0.28486473    -0.38500
N162        N  0.42885997  0.07017826  0.23024515    -0.38500
N163        N  0.38532999  0.42433252  0.28001782    -0.37900
N164        N  0.34990085  0.07442809  0.23371193    -0.37900
C165        C  0.11104302  0.50520652  0.99794548    -0.04600
C166        C  0.11696150  0.47931893  0.50750924    -0.01700
C167        C  0.14526874  0.47699003  0.50655956     0.03300
C168        C  0.16840527  0.00103243  0.99755300    -0.04600
C169        C  0.16195765  0.02707452  0.98714710    -0.01700
C170        C  0.13352460  0.02897659  0.98723192     0.03300
C171        C  0.09421082  0.45480289  0.51922752     0.37900
C172        C  0.18418398  0.05213255  0.97544870     0.37900
C173        C  0.12734214  0.05534242  0.97509967     0.36300
C174        C  0.15003778  0.44918636  0.51516391     0.36300
N175        N  0.12246048  0.07632510  0.96535394    -0.38500
N176        N  0.15344895  0.42678333  0.52171318    -0.38500
N177        N  0.20174367  0.07218721  0.96606198    -0.37900
N178        N  0.07628652  0.43514150  0.52869904    -0.37900
C179        C  0.39300141  0.99734617  0.50239250    -0.04600
C180        C  0.37268672  0.47483712  0.01821081    -0.01700
C181        C  0.34409094  0.47589907  0.01998767     0.03300
C182        C  0.33495457  0.99856305  0.50441037    -0.04600
C183        C  0.35564398  0.02111878  0.48863302    -0.01700
C184        C  0.38465360  0.02090790  0.48851186     0.03300
C185        C  0.38102174  0.45031113  0.03236508     0.37900
C186        C  0.34703269  0.04377305  0.47077726     0.37900
C187        C  0.40562255  0.04436376  0.47276967     0.36300
C188        C  0.32420230  0.45361067  0.03822857     0.36300
N189        N  0.42223417  0.06322198  0.46029411    -0.38500
N190        N  0.30849029  0.43583260  0.05290863    -0.38500
N191        N  0.34022535  0.06175293  0.45632621    -0.37900
N192        N  0.38763239  0.43065367  0.04337242    -0.37900
C193        C  0.00975613  0.01119505  0.34424991    -0.04600
C194        C  0.02530904  0.99364522  0.35999144    -0.01700
C195        C  0.01955553  0.48392514  0.39057554     0.03300
C196        C  0.99793322  0.49130076  0.40571959    -0.04600
C197        C  0.48248117  0.50898459  0.39000037    -0.01700
C198        C  0.48848111  0.01894992  0.35952352     0.03300
C199        C  0.04667252  0.98464675  0.34469113     0.37900
C200        C  0.46069941  0.51757022  0.40505233     0.37900
C201        C  0.47331997  0.03829250  0.34459516     0.36300
C202        C  0.03580934  0.46577230  0.40592669     0.36300
N203        N  0.46115947  0.05367441  0.33281860    -0.38500
N204        N  0.04894749  0.45147159  0.41809720    -0.38500
N205        N  0.44314397  0.52422737  0.41688101    -0.37900
N206        N  0.06380612  0.97749182  0.33267767    -0.37900
C207        C  0.99903813  0.49339371  0.15437781    -0.04600
C208        C  0.48267206  0.01069068  0.13946890    -0.01700
C209        C  0.48725720  0.02066381  0.10889580     0.03300
C210        C  0.00867425  0.01400879  0.09281697    -0.04600
C211        C  0.02568066  0.49731140  0.10802528    -0.01700
C212        C  0.02057506  0.48678815  0.13838544     0.03300
C213        C  0.46169611  0.01934581  0.15586061     0.37900
C214        C  0.04720361  0.48925804  0.09190205     0.37900
C215        C  0.03707175  0.46834382  0.15259452     0.36300
C216        C  0.46992760  0.03810673  0.09429630     0.36300
N217        N  0.05035277  0.45373847  0.16379983    -0.38500
N218        N  0.45586324  0.05176843  0.08272468    -0.38500
N219        N  0.06443448  0.48286581  0.07920537    -0.37900
N220        N  0.44493600  0.02618902  0.16886997    -0.37900
C221        C  0.00079738  0.39202322  0.24050914    -0.04600
C222        C  0.99737298  0.37667482  0.21349505    -0.01700
C223        C  0.99785582  0.34751919  0.21493643     0.03300
C224        C  0.00141791  0.33344147  0.24331221    -0.04600
C225        C  0.50474888  0.34862729  0.27022885    -0.01700
C226        C  0.50465498  0.37785216  0.26886769     0.03300
C227        C  0.99329587  0.39073503  0.18414088     0.37900
C228        C  0.50674069  0.33380868  0.29958974     0.37900
C229        C  0.50667461  0.39268784  0.29693933     0.36300
C230        C  0.99435395  0.33182448  0.18724714     0.36300
N231        N  0.50817394  0.40445361  0.31932931    -0.38500
N232        N  0.99152760  0.31927799  0.16519527    -0.38500
N233        N  0.50792476  0.32239312  0.32332560    -0.37900
N234        N  0.98981434  0.40170371  0.16065264    -0.37900
C235        C  0.00427612  0.10858540  0.25687306    -0.04600
C236        C  0.49590918  0.12109160  0.22916730    -0.01700
C237        C  0.49330759  0.14949620  0.22795722     0.03300
C238        C  0.99900791  0.16571131  0.25430799    -0.04600
C239        C  0.00712458  0.15332954  0.28203667    -0.01700
C240        C  0.00982652  0.12492267  0.28336752     0.03300
C241        C  0.49177367  0.10557358  0.20129353     0.37900
C242        C  0.01282721  0.16998417  0.30921740     0.37900
C243        C  0.01837234  0.11268488  0.31210141     0.36300
C244        C  0.48641503  0.16261899  0.19906548     0.36300
N245        N  0.02539968  0.10313802  0.33504409    -0.38500
N246        N  0.48120530  0.17279869  0.17573690    -0.38500
N247        N  0.01734494  0.18331754  0.33084083    -0.37900
N248        N  0.48854477  0.09333493  0.17899761    -0.37900
C249        C  0.99843934  0.25081237  0.34080655    -0.04600
C250        C  0.02260910  0.26786688  0.35789398    -0.01700
C251        C  0.02150575  0.26989948  0.38967441     0.03300
C252        C  0.99688640  0.25372304  0.40560520    -0.04600
C253        C  0.47230892  0.23762252  0.38843017    -0.01700
C254        C  0.47321517  0.23583224  0.35657268     0.03300
C255        C  0.04873363  0.28434979  0.34300904     0.37900
C256        C  0.44560071  0.22273624  0.40313447     0.37900
C257        C  0.44800908  0.21760148  0.34049334     0.36300
C258        C  0.04528955  0.29040985  0.40544710     0.36300
N259        N  0.42778367  0.20306594  0.32791148    -0.38500
N260        N  0.06415152  0.30704129  0.41778969    -0.38500
N261        N  0.42416365  0.21096498  0.41460341    -0.37900
N262        N  0.06960816  0.29758474  0.33132485    -0.37900
C263        C  0.00024178  0.24902598  0.09084318    -0.04600
C264        C  0.02505251  0.26489314  0.10790059    -0.01700
C265        C  0.02507628  0.26501540  0.14004436     0.03300
C266        C  0.00020016  0.24951270  0.15606366    -0.04600
C267        C  0.47536122  0.23373417  0.13889993    -0.01700
C268        C  0.47572971  0.23280770  0.10690481     0.03300
C269        C  0.05080882  0.28184201  0.09267302     0.37900
C270        C  0.44905729  0.21775478  0.15377231     0.37900
C271        C  0.45096229  0.21378993  0.09090647     0.36300
C272        C  0.05084365  0.28212061  0.15622135     0.36300
N273        N  0.43124546  0.19846696  0.07832971    -0.38500
N274        N  0.07152749  0.29573506  0.16888401    -0.38500
N275        N  0.42796583  0.20499182  0.16535591    -0.37900
N276        N  0.07140567  0.29541363  0.08072383    -0.37900
C277        C  0.00124545  0.33538667  0.49587099    -0.04600
C278        C  0.00669370  0.35073845  0.02278599    -0.01700
C279        C  0.00690162  0.38006643  0.02182887     0.03300
C280        C  0.00146593  0.39413067  0.49396454    -0.04600
C281        C  0.49615626  0.37855701  0.46692969    -0.01700
C282        C  0.49607554  0.34931845  0.46795183     0.03300
C283        C  0.01024877  0.33592828  0.05180456     0.37900
C284        C  0.49034788  0.39235453  0.43794187     0.37900
C285        C  0.49000911  0.33331985  0.44030067     0.36300
C286        C  0.01098340  0.39516933  0.04996852     0.36300
N287        N  0.48501247  0.32062143  0.41823453    -0.38500
N288        N  0.01419187  0.40716022  0.07242914    -0.38500
N289        N  0.48535303  0.40312543  0.41484327    -0.37900
N290        N  0.01266699  0.32430617  0.07518003    -0.37900
C291        C  0.50034728  0.10977726  0.00341017    -0.04600
C292        C  0.00566761  0.12569039  0.03015813    -0.01700
C293        C  0.00379432  0.15433558  0.02907751     0.03300
C294        C  0.49598694  0.16712450  0.00147869    -0.04600
C295        C  0.48931972  0.15096471  0.47520094    -0.01700
C296        C  0.49182362  0.12250892  0.47602092     0.03300
C297        C  0.01279557  0.11256010  0.05900820     0.37900
C298        C  0.48105979  0.16398467  0.44683950     0.37900
C299        C  0.48718002  0.10707664  0.44807075     0.36300
C300        C  0.00992243  0.17071345  0.05645683     0.36300
N301        N  0.48351312  0.09494712  0.42566774    -0.38500
N302        N  0.01482349  0.18368263  0.07833943    -0.38500
N303        N  0.47447654  0.17411510  0.42405264    -0.37900
N304        N  0.01852110  0.10215581  0.08203085    -0.37900
O305        O  0.47577590  0.28506762  0.99634253    -0.73700
O306        O  0.47292493  0.20486168  0.49866920    -0.73700
O307        O  0.47538281  0.24422619  0.54115166    -0.73800
O308        O  0.47373317  0.24651504  0.95386057    -0.73800
O309        O  0.02157424  0.25866462  0.95532461    -0.73800
O310        O  0.02320219  0.25613644  0.54260834    -0.74700
O311        O  0.02106059  0.21750581  0.50025708    -0.73700
O312        O  0.02392550  0.29764211  0.99806916    -0.73800
Ni313      Ni  0.47270251  0.24469002  0.49744226     1.25400
Ni314      Ni  0.02418567  0.25792900  0.99905518     1.25400
C315        C  0.00029980  0.30445231  0.99692769     0.88500
C316        C  0.99657143  0.19804708  0.49999314     0.88400
C317        C  0.49956080  0.24986584  0.55651024     0.88400
C318        C  0.49740407  0.25306296  0.93995917     0.88600
O319        O  0.47504830  0.20277666  0.74963091    -0.73700
O320        O  0.47652405  0.28290899  0.74447202    -0.73700
O321        O  0.47623193  0.24341496  0.70368412    -0.73800
O322        O  0.47535141  0.24296330  0.79056689    -0.73800
O323        O  0.02319099  0.25588131  0.79365185    -0.73800
O324        O  0.02404123  0.25590653  0.70644000    -0.73700
O325        O  0.02467979  0.29609178  0.74734579    -0.73700
O326        O  0.02318682  0.21621370  0.75305482    -0.73800
Ni327      Ni  0.47408647  0.24247778  0.74700404     1.25400
Ni328      Ni  0.02548274  0.25651020  0.75019576     1.25400
C329        C  0.99895598  0.19640631  0.75222154     0.88500
C330        C  0.00088004  0.30258724  0.74515293     0.88400
C331        C  0.00020297  0.24972421  0.69042628     0.88400
C332        C  0.99906192  0.24966677  0.80668916     0.88600
O333        O  0.42412366  0.47263105  0.98620348    -0.80200
O334        O  0.05972005  0.48898335  0.99168335    -0.64900
O335        O  0.48098797  0.47966186  0.50752273    -1.11500
C336        C  0.50561178  0.08089801  0.50407313     1.06700
O337        O  0.08006276  0.03167343  0.51214783    -0.78100
O338        O  0.03887245  0.03150054  0.55122293    -0.65600
Ni339      Ni  0.45275046  0.45292627  0.98296575     1.34900
C340        C  0.01331346  0.02404864  0.56041150     0.85500
O341        O  0.01599667  0.44369051  0.00736662    -0.78600
O342        O  0.47626962  0.42789214  0.97803319    -0.88900
C343        C  0.08172917  0.50898355  0.50103652     0.85000
O344        O  0.46635793  0.47511371  0.94682618    -0.67100
O345        O  0.02836448  0.07784036  0.51797349    -0.86400
C346        C  0.99200620  0.48129240  0.93796668     0.85900
C347        C  0.99780085  0.42360153  0.99328563     1.07400
H348        H  0.02571854  0.02998702  0.96961558     0.39200
O349        O  0.02295019  0.02441436  0.99093056    -1.09000
O350        O  0.49158788  0.02490241  0.54287449    -0.65700
Ni351      Ni  0.48368348  0.01995222  0.49959245     1.26300
O352        O  0.01302700  0.47916595  0.95591321    -0.65900
O353        O  0.48726443  0.06007908  0.49127961    -0.78200
C354        C  0.42231310  0.99464572  0.99830858     0.85200
O355        O  0.44425833  0.01465709  0.50770146    -0.65400
Ni356      Ni  0.05170891  0.05211421  0.51420618     1.27400
Ni357      Ni  0.02027734  0.48406420  0.99920939     1.26100
H358        H  0.47778770  0.47375395  0.52872483     0.39800
O359        O  0.42542799  0.47289082  0.73451325    -0.80200
O360        O  0.06042949  0.48668850  0.74004176    -0.64900
O361        O  0.48201026  0.47778276  0.75619529    -1.11500
C362        C  0.50865745  0.07918275  0.75703708     1.06700
O363        O  0.08180098  0.02841939  0.76194804    -0.78100
O364        O  0.04075829  0.02769980  0.80220487    -0.65600
Ni365      Ni  0.45331785  0.45222717  0.73072666     1.34900
C366        C  0.01518230  0.02080379  0.81138407     0.85500
O367        O  0.01622667  0.44143375  0.75395072    -0.78600
O368        O  0.47613536  0.42646475  0.72484521    -0.88900
C369        C  0.08267727  0.50581461  0.74968354     0.85000
O370        O  0.46730594  0.47513747  0.69527620    -0.67100
O371        O  0.03121408  0.07537727  0.77070489    -0.86400
C372        C  0.99295698  0.48180788  0.68645096     0.85900
C373        C  0.99765981  0.42171703  0.73978382     1.07400
H374        H  0.02753893  0.02910878  0.72018843     0.39200
O375        O  0.02472328  0.02271908  0.74135875    -1.09000
O376        O  0.49354706  0.02161525  0.79371590    -0.65700
Ni377      Ni  0.48565248  0.01839236  0.75030078     1.26300
O378        O  0.01398041  0.47909384  0.70407591    -0.65900
O379        O  0.48989790  0.05882858  0.74397558    -0.78200
C380        C  0.42419095  0.99438555  0.74862982     0.85200
O381        O  0.44638994  0.01322346  0.75889072    -0.65400
Ni382      Ni  0.05388811  0.04920570  0.76553491     1.27400
Ni383      Ni  0.02108200  0.48201746  0.74767672     1.26100
H384        H  0.47878626  0.47110730  0.77710885     0.39800
O385        O  0.21979578  0.02349276  0.00002450    -0.73700
O386        O  0.29824112  0.02253508  0.00254116    -0.73700
O387        O  0.25772662  0.02341267  0.95707878    -0.73800
O388        O  0.25994437  0.02274721  0.54500012    -0.73800
O389        O  0.24443332  0.47459545  0.54690417    -0.73800
O390        O  0.24443765  0.47551513  0.95900510    -0.73700
O391        O  0.28373152  0.47457544  0.50503455    -0.73700
O392        O  0.20481778  0.47584395  0.50040574    -0.73800
Ni393      Ni  0.25949024  0.02466271  0.00108952     1.25400
Ni394      Ni  0.24373018  0.47337008  0.50299566     1.25400
C395        C  0.19909236  0.00003833  0.49914902     0.88500
C396        C  0.30411849  0.99831486  0.00402896     0.88400
C397        C  0.25080786  0.99935848  0.94356947     0.88400
C398        C  0.25230771  0.99845820  0.56044803     0.88600
O399        O  0.24670703  0.47609106  0.79751657    -0.73700
O400        O  0.24586896  0.47588308  0.70978044    -0.73700
O401        O  0.28572574  0.47623641  0.75560730    -0.73800
O402        O  0.20665029  0.47575238  0.75108154    -0.73800
O403        O  0.22052087  0.02357781  0.74788457    -0.73800
O404        O  0.29985725  0.02388063  0.75443361    -0.73700
O405        O  0.26082686  0.02381845  0.70721053    -0.73700
O406        O  0.25957210  0.02396515  0.79488899    -0.73800
Ni407      Ni  0.24575344  0.47431346  0.75364788     1.25400
Ni408      Ni  0.26069326  0.02552942  0.75100897     1.25400
C409        C  0.25306704  0.99981024  0.81062933     0.88500
C410        C  0.25340076  0.99963615  0.69391630     0.88400
C411        C  0.30611002  0.99981095  0.75563231     0.88400
C412        C  0.20042151  0.99936528  0.74844255     0.88600
C413        C  0.25125025  0.99953269  0.90951656    -0.04600
C414        C  0.23062745  0.00871037  0.89061504    -0.01700
C415        C  0.23135311  0.00897593  0.85841773     0.03300
C416        C  0.25257607  0.99986231  0.84465849    -0.04600
C417        C  0.27387917  0.49205799  0.86348927    -0.01700
C418        C  0.27321012  0.49172452  0.89567733     0.03300
C419        C  0.20774161  0.01657520  0.90423158     0.37900
C420        C  0.29701420  0.48474755  0.84969384     0.37900
C421        C  0.29504546  0.48301073  0.91461982     0.36300
C422        C  0.20973165  0.01793869  0.83935853     0.36300
N423        N  0.31238976  0.47597328  0.92977374    -0.38500
N424        N  0.19249003  0.02503831  0.82409204    -0.38500
N425        N  0.31567431  0.47913998  0.83880716    -0.37900
N426        N  0.18912100  0.02254980  0.91476127    -0.37900
C427        C  0.25276984  0.99828400  0.59467351    -0.04600
C428        C  0.27726585  0.51563907  0.61131361    -0.01700
C429        C  0.27723605  0.51662293  0.64345005     0.03300
C430        C  0.25321046  0.99939040  0.65973182    -0.04600
C431        C  0.22909167  0.98180762  0.64324915    -0.01700
C432        C  0.22877469  0.98147146  0.61103913     0.03300
C433        C  0.30296355  0.53141856  0.59539722     0.37900
C434        C  0.20390266  0.96486913  0.65931297     0.37900
C435        C  0.20304616  0.96468721  0.59474806     0.36300
C436        C  0.30237282  0.53463621  0.65963157     0.36300
N437        N  0.18229112  0.95129975  0.58207065    -0.38500
N438        N  0.32254437  0.54922655  0.67220163    -0.38500
N439        N  0.18381744  0.95138366  0.67213564    -0.37900
N440        N  0.32352015  0.54379204  0.58269824    -0.37900
C441        C  0.16937282  0.49961202  0.74645591    -0.04600
C442        C  0.16100888  0.02138186  0.72888568    -0.01700
C443        C  0.13242686  0.02288478  0.72921274     0.03300
C444        C  0.11156449  0.50203161  0.74631756    -0.04600
C445        C  0.11923913  0.47862104  0.76157175    -0.01700
C446        C  0.14809401  0.47767273  0.76222773     0.03300
C447        C  0.18132430  0.04216018  0.70964999     0.37900
C448        C  0.09752290  0.45566341  0.77704493     0.37900
C449        C  0.15579522  0.45459665  0.78025270     0.36300
C450        C  0.12396497  0.04557836  0.71125070     0.36300
N451        N  0.16182415  0.43613309  0.79463856    -0.38500
N452        N  0.11705792  0.06350651  0.69681718    -0.38500
N453        N  0.08022996  0.43708536  0.78907275    -0.37900
N454        N  0.19741948  0.05866683  0.69415723    -0.37900
C455        C  0.33714089  0.99944396  0.75656230    -0.04600
C456        C  0.35975350  0.02464344  0.74796080    -0.01700
C457        C  0.38838664  0.02335296  0.74650733     0.03300
C458        C  0.39496432  0.99700675  0.75334588    -0.04600
C459        C  0.37282302  0.47251633  0.76351784    -0.01700
C460        C  0.34428300  0.47371491  0.76525489     0.03300
C461        C  0.35400698  0.05205865  0.73966317     0.37900
C462        C  0.37971788  0.44580266  0.77290111     0.37900
C463        C  0.32273663  0.44775255  0.77624469     0.36300
C464        C  0.41089267  0.04910277  0.73687978     0.36300
N465        N  0.30575258  0.42691395  0.78497941    -0.38500
N466        N  0.42866945  0.06980344  0.72931433    -0.38500
N467        N  0.38523938  0.42456080  0.78037603    -0.37900
N468        N  0.34977879  0.07409324  0.73305597    -0.37900
C469        C  0.11101356  0.50561160  0.49830966    -0.04600
C470        C  0.11705145  0.47900735  0.00742693    -0.01700
C471        C  0.14537182  0.47670548  0.00649530     0.03300
C472        C  0.16833623  0.00118677  0.49731727    -0.04600
C473        C  0.16180996  0.02721248  0.48698662    -0.01700
C474        C  0.13329941  0.02892707  0.48684087     0.03300
C475        C  0.09435892  0.45459418  0.01941941     0.37900
C476        C  0.18404367  0.05249564  0.47573595     0.37900
C477        C  0.12691092  0.05504365  0.47422410     0.36300
C478        C  0.15023001  0.44899212  0.01536374     0.36300
N479        N  0.12183320  0.07578854  0.46402390    -0.38500
N480        N  0.15370612  0.42665028  0.02210617    -0.38500
N481        N  0.20160762  0.07276422  0.46677042    -0.37900
N482        N  0.07647556  0.43502143  0.02911364    -0.37900
C483        C  0.39300052  0.99706677  0.00214374    -0.04600
C484        C  0.37239169  0.47443057  0.51794898    -0.01700
C485        C  0.34380429  0.47551627  0.51973061     0.03300
C486        C  0.33494540  0.99823937  0.00416025    -0.04600
C487        C  0.35558215  0.02072678  0.98824936    -0.01700
C488        C  0.38460139  0.02055421  0.98814846     0.03300
C489        C  0.38068293  0.44985022  0.53202518     0.37900
C490        C  0.34690681  0.04326816  0.97025404     0.37900
C491        C  0.40553456  0.04398695  0.97234062     0.36300
C492        C  0.32389059  0.45320771  0.53792794     0.36300
N493        N  0.42211201  0.06283891  0.95981934    -0.38500
N494        N  0.30815908  0.43541580  0.55257578    -0.38500
N495        N  0.34005297  0.06115697  0.95568899    -0.37900
N496        N  0.38724747  0.43014383  0.54296994    -0.37900
C497        C  0.01006806  0.01154115  0.84399178    -0.04600
C498        C  0.02572291  0.99411449  0.85978706    -0.01700
C499        C  0.01942820  0.48377433  0.89045152     0.03300
C500        C  0.99783267  0.49118883  0.90560200    -0.04600
C501        C  0.48243962  0.50893989  0.88990007    -0.01700
C502        C  0.48876676  0.01926744  0.85924399     0.03300
C503        C  0.04719627  0.98522705  0.84454355     0.37900
C504        C  0.46056528  0.51742940  0.90489632     0.37900
C505        C  0.47360730  0.03860169  0.84429062     0.36300
C506        C  0.03551719  0.46543260  0.90573280     0.36300
N507        N  0.46147021  0.05398813  0.83247783    -0.38500
N508        N  0.04851760  0.45096998  0.91784035    -0.38500
N509        N  0.44292339  0.52399507  0.91667147    -0.37900
N510        N  0.06441690  0.97816168  0.83257841    -0.37900
C511        C  0.99854282  0.49294095  0.65438819    -0.04600
C512        C  0.48257887  0.01057451  0.63947602    -0.01700
C513        C  0.48727724  0.02067627  0.60895439     0.03300
C514        C  0.00858336  0.01387333  0.59282659    -0.04600
C515        C  0.02510692  0.49687973  0.60798034    -0.01700
C516        C  0.02005993  0.48635509  0.63834709     0.03300
C517        C  0.46170281  0.01933086  0.65592239     0.37900
C518        C  0.04660005  0.48883250  0.59180018     0.37900
C519        C  0.03661920  0.46795623  0.65252445     0.36300
C520        C  0.47021209  0.03843801  0.59447537     0.36300
N521        N  0.04995342  0.45338801  0.66369766    -0.38500
N522        N  0.45636345  0.05236605  0.58300543    -0.38500
N523        N  0.06379857  0.48243700  0.57905269    -0.37900
N524        N  0.44501980  0.02625571  0.66897154    -0.37900
C525        C  0.00067464  0.39192626  0.74071848    -0.04600
C526        C  0.99733538  0.37660699  0.71370011    -0.01700
C527        C  0.99793499  0.34749292  0.71513904     0.03300
C528        C  0.00147338  0.33341635  0.74352171    -0.04600
C529        C  0.50463701  0.34855070  0.77045456    -0.01700
C530        C  0.50445782  0.37774878  0.76909003     0.03300
C531        C  0.99314017  0.39062474  0.68435513     0.37900
C532        C  0.50651781  0.33369549  0.79981868     0.37900
C533        C  0.50625016  0.39253724  0.79715514     0.36300
C534        C  0.99453060  0.33182379  0.68744281     0.36300
N535        N  0.50754323  0.40427545  0.81952744    -0.38500
N536        N  0.99177721  0.31929832  0.66538494    -0.38500
N537        N  0.50760758  0.32223423  0.82354685    -0.37900
N538        N  0.98953461  0.40153911  0.66087266    -0.37900
C539        C  0.00428309  0.10855223  0.75644512    -0.04600
C540        C  0.49552826  0.12100384  0.72889341    -0.01700
C541        C  0.49281687  0.14937016  0.72783263     0.03300
C542        C  0.99896821  0.16566625  0.75413499    -0.04600
C543        C  0.00750554  0.15335249  0.78170062    -0.01700
C544        C  0.01017184  0.12493681  0.78291891     0.03300
C545        C  0.49114268  0.10550221  0.70099356     0.37900
C546        C  0.01365317  0.17007827  0.80884123     0.37900
C547        C  0.01902998  0.11273507  0.81152680     0.36300
C548        C  0.48529966  0.16237339  0.69912671     0.36300
N549        N  0.02629585  0.10320315  0.83436253    -0.38500
N550        N  0.47954246  0.17248532  0.67597278    -0.38500
N551        N  0.01853248  0.18347283  0.83042942    -0.37900
N552        N  0.48773055  0.09329983  0.67865940    -0.37900
C553        C  0.99847650  0.25073843  0.84083987    -0.04600
C554        C  0.02269878  0.26772022  0.85791074    -0.01700
C555        C  0.02165442  0.26971995  0.88970029     0.03300
C556        C  0.99698953  0.25365986  0.90563712    -0.04600
C557        C  0.47236599  0.23762668  0.88847443    -0.01700
C558        C  0.47322677  0.23585820  0.85661168     0.03300
C559        C  0.04881080  0.28419218  0.84299255     0.37900
C560        C  0.44567288  0.22273103  0.90320503     0.37900
C561        C  0.44792001  0.21779779  0.84052626     0.36300
C562        C  0.04560769  0.29001699  0.90548516     0.36300
N563        N  0.42760636  0.20341435  0.82794088    -0.38500
N564        N  0.06463315  0.30645585  0.91783074    -0.38500
N565        N  0.42425587  0.21092813  0.91469662    -0.37900
N566        N  0.06967156  0.29741920  0.83127902    -0.37900
C567        C  0.00011873  0.24931494  0.59083992    -0.04600
C568        C  0.02504958  0.26493746  0.60790330    -0.01700
C569        C  0.02516650  0.26493363  0.64006676     0.03300
C570        C  0.00019796  0.24971913  0.65609573    -0.04600
C571        C  0.47517949  0.23434642  0.63891177    -0.01700
C572        C  0.47547297  0.23344621  0.60690923     0.03300
C573        C  0.05081686  0.28183554  0.59266072     0.37900
C574        C  0.44872811  0.21878142  0.65375711     0.37900
C575        C  0.45039850  0.21488733  0.59091597     0.36300
C576        C  0.05116426  0.28156821  0.65625505     0.36300
N577        N  0.43040655  0.19994608  0.57836652    -0.38500
N578        N  0.07203856  0.29478879  0.66892345    -0.38500
N579        N  0.42751641  0.20636958  0.66531916    -0.37900
N580        N  0.07141981  0.29538568  0.58070786    -0.37900
C581        C  0.00124665  0.33531488  0.99587342    -0.04600
C582        C  0.00640412  0.35067998  0.52286276    -0.01700
C583        C  0.00679921  0.38006226  0.52193037     0.03300
C584        C  0.00128782  0.39401449  0.99388948    -0.04600
C585        C  0.49577423  0.37833962  0.96691761    -0.01700
C586        C  0.49569498  0.34909728  0.96799353     0.03300
C587        C  0.00944982  0.33567733  0.55190286     0.37900
C588        C  0.48982374  0.39205610  0.93793355     0.37900
C589        C  0.48926121  0.33294569  0.94044401     0.36300
C590        C  0.01080598  0.39511367  0.55009557     0.36300
N591        N  0.48395651  0.32011131  0.91847099    -0.38500
N592        N  0.01398002  0.40707203  0.57257421    -0.38500
N593        N  0.48475260  0.40277380  0.91483214    -0.37900
N594        N  0.01143475  0.32387039  0.57527296    -0.37900
C595        C  0.50044164  0.10985985  0.50351182    -0.04600
C596        C  0.00566005  0.12575385  0.53027465    -0.01700
C597        C  0.00364990  0.15435579  0.52920665     0.03300
C598        C  0.49590676  0.16715963  0.50158508    -0.04600
C599        C  0.48924112  0.15089195  0.97512283    -0.01700
C600        C  0.49166543  0.12240845  0.97594336     0.03300
C601        C  0.01286341  0.11267109  0.55912099     0.37900
C602        C  0.48093402  0.16390420  0.94677908     0.37900
C603        C  0.48685948  0.10692342  0.94801911     0.36300
C604        C  0.00953656  0.17066317  0.55663134     0.36300
N605        N  0.48305559  0.09475976  0.92563042    -0.38500
N606        N  0.01422155  0.18356475  0.57855779    -0.38500
N607        N  0.47431974  0.17401684  0.92399625    -0.37900
N608        N  0.01867718  0.10232392  0.58214070    -0.37900
O609        O  0.47573586  0.78513011  0.49627017    -0.73700
O610        O  0.47272242  0.70471964  0.99869157    -0.73700
O611        O  0.47508293  0.74414137  0.04107266    -0.73800
O612        O  0.47361181  0.74653981  0.45380604    -0.73800
O613        O  0.02145820  0.75864343  0.45523119    -0.73800
O614        O  0.02290296  0.75606059  0.04263514    -0.74700
O615        O  0.02086052  0.71733981  0.00047220    -0.73700
O616        O  0.02388356  0.79764694  0.49795632    -0.73800
Ni617      Ni  0.47253036  0.74456275  0.99735276     1.25400
Ni618      Ni  0.02408839  0.75791806  0.49896525     1.25400
C619        C  0.00027412  0.80448607  0.49684174     0.88500
C620        C  0.99636769  0.69789511  0.00015389     0.88400
C621        C  0.49923263  0.74977103  0.05648495     0.88400
C622        C  0.49727484  0.75306992  0.43989082     0.88600
O623        O  0.47461298  0.70276714  0.24973141    -0.73700
O624        O  0.47640676  0.78299940  0.24444639    -0.73700
O625        O  0.47586329  0.74336015  0.20368737    -0.73800
O626        O  0.47517120  0.74307827  0.29059671    -0.73800
O627        O  0.02301958  0.75581267  0.29361084    -0.73800
O628        O  0.02367192  0.75569720  0.20639887    -0.73700
O629        O  0.02455855  0.79601018  0.24726508    -0.73700
O630        O  0.02275241  0.71604047  0.25305650    -0.73800
Ni631      Ni  0.47380954  0.74252192  0.24703143     1.25400
Ni632      Ni  0.02520687  0.75637308  0.25014763     1.25400
C633        C  0.99847255  0.69630290  0.25231805     0.88500
C634        C  0.00081119  0.80260971  0.24509799     0.88400
C635        C  0.99981974  0.74956679  0.19040901     0.88400
C636        C  0.99891288  0.74967711  0.30667751     0.88600
O637        O  0.42395260  0.97255230  0.48590713    -0.80200
O638        O  0.05953301  0.98893647  0.49177655    -0.64900
O639        O  0.48098062  0.97959776  0.00705105    -1.11500
C640        C  0.50587976  0.58097175  0.00415983     1.06700
O641        O  0.08029344  0.53164792  0.01219606    -0.78100
O642        O  0.03931673  0.53190141  0.05132182    -0.65600
Ni643      Ni  0.45259423  0.95283717  0.48280900     1.34900
C644        C  0.01379434  0.52439244  0.06060984     0.85500
O645        O  0.01579623  0.94366770  0.50746240    -0.78600
O646        O  0.47614775  0.92779967  0.47802638    -0.88900
C647        C  0.08172282  0.00871111  0.00082437     0.85000
O648        O  0.46627997  0.97496143  0.44667000    -0.67100
O649        O  0.02880287  0.57804272  0.01776850    -0.86400
C650        C  0.99195748  0.98117748  0.43788740     0.85900
C651        C  0.99766442  0.92355869  0.49335121     1.07400
H652        H  0.02563300  0.53004682  0.46994273     0.39200
O653        O  0.02288278  0.52449692  0.49126436    -1.09000
O654        O  0.49194869  0.52492348  0.04311045    -0.65700
Ni655      Ni  0.48389549  0.51998053  0.99984476     1.26300
O656        O  0.01293969  0.97906940  0.45589948    -0.65900
O657        O  0.48741881  0.56008728  0.99159665    -0.78200
C658        C  0.42226143  0.49462974  0.49879240     0.85200
O659        O  0.44448646  0.51466892  0.00809318    -0.65400
Ni660      Ni  0.05203121  0.55220744  0.01412900     1.27400
Ni661      Ni  0.02007564  0.98402863  0.49919512     1.26100
H662        H  0.47773536  0.97364469  0.02823605     0.39800
O663        O  0.42565523  0.97301509  0.23420411    -0.80200
O664        O  0.06062936  0.98683997  0.24005924    -0.64900
O665        O  0.48218512  0.97789697  0.25602462    -1.11500
C666        C  0.50826725  0.57911496  0.25763112     1.06700
O667        O  0.08162746  0.52865818  0.26234109    -0.78100
O668        O  0.04039752  0.52746310  0.30264546    -0.65600
Ni669      Ni  0.45357080  0.95237544  0.23046309     1.34900
C670        C  0.01479461  0.52052207  0.31176756     0.85500
O671        O  0.01643333  0.94157803  0.25384816    -0.78600
O672        O  0.47643118  0.92663804  0.22461582    -0.88900
C673        C  0.08286703  0.00595971  0.24971507     0.85000
O674        O  0.46762371  0.97535571  0.19507674    -0.67100
O675        O  0.03073385  0.57527545  0.27148701    -0.86400
C676        C  0.99329014  0.98205984  0.18629683     0.85900
C677        C  0.99790597  0.92186758  0.23963765     1.07400
H678        H  0.02741021  0.52928607  0.22064034     0.39200
O679        O  0.02453546  0.52281487  0.24178232    -1.09000
O680        O  0.49319200  0.52141099  0.29407638    -0.65700
Ni681      Ni  0.48542023  0.51836832  0.25061403     1.26300
O682        O  0.01428699  0.97932215  0.20395635    -0.65900
O683        O  0.48961449  0.55878800  0.24442780    -0.78200
C684        C  0.42398962  0.49435837  0.24857288     0.85200
O685        O  0.44612791  0.51308636  0.25910563    -0.65400
Ni686      Ni  0.05356867  0.54925984  0.26612853     1.27400
Ni687      Ni  0.02127622  0.98216483  0.24759490     1.26100
H688        H  0.47891549  0.97117485  0.27691989     0.39800
O689        O  0.21983332  0.52389406  0.49994953    -0.73700
O690        O  0.29825888  0.52281579  0.50269795    -0.73700
O691        O  0.25783222  0.52373295  0.45712142    -0.73800
O692        O  0.26005265  0.52281373  0.04509787    -0.73800
O693        O  0.24448115  0.97424704  0.04687004    -0.73800
O694        O  0.24418858  0.97535436  0.45898765    -0.73700
O695        O  0.28376973  0.97428769  0.00493425    -0.73700
O696        O  0.20480297  0.97544328  0.00039850    -0.73800
Ni697      Ni  0.25951979  0.52500328  0.50112613     1.25400
Ni698      Ni  0.24374769  0.97302839  0.00294461     1.25400
C699        C  0.19923271  0.50001619  0.99913139     0.88500
C700        C  0.30410959  0.49858063  0.50421095     0.88400
C701        C  0.25085258  0.49966609  0.44363201     0.88400
C702        C  0.25245849  0.49851294  0.06053147     0.88600
O703        O  0.24666903  0.97592700  0.29745373    -0.73700
O704        O  0.24602674  0.97574848  0.20974159    -0.73700
O705        O  0.28579700  0.97607566  0.25562576    -0.73800
O706        O  0.20672133  0.97564189  0.25094454    -0.73800
O707        O  0.22040453  0.52372911  0.24799372    -0.73800
O708        O  0.29970952  0.52391695  0.25459351    -0.73700
O709        O  0.26075634  0.52395580  0.20733358    -0.73700
O710        O  0.25940434  0.52399445  0.29501771    -0.73800
Ni711      Ni  0.24581953  0.97417176  0.25359440     1.25400
Ni712      Ni  0.26056684  0.52561810  0.25114035     1.25400
C713        C  0.25287266  0.49982421  0.31073084     0.88500
C714        C  0.25334256  0.49978196  0.19402148     0.88400
C715        C  0.30593536  0.49983537  0.25576006     0.88400
C716        C  0.20028172  0.49953389  0.24857380     0.88600
C717        C  0.25124972  0.49979316  0.40959213    -0.04600
C718        C  0.23046032  0.50872213  0.39071270    -0.01700
C719        C  0.23108822  0.50884982  0.35851925     0.03300
C720        C  0.25238632  0.49985865  0.34475357    -0.04600
C721        C  0.27316513  0.99102033  0.36348030    -0.01700
C722        C  0.27246133  0.99066424  0.39566239     0.03300
C723        C  0.20756644  0.51655111  0.40436090     0.37900
C724        C  0.29585880  0.98291813  0.34972960     0.37900
C725        C  0.29377217  0.98111592  0.41462789     0.36300
C726        C  0.20929801  0.51754341  0.33947194     0.36300
N727        N  0.31069111  0.97341577  0.42980686    -0.38500
N728        N  0.19192076  0.52442105  0.32420980    -0.38500
N729        N  0.31417285  0.97668102  0.33887344    -0.37900
N730        N  0.18896437  0.52252095  0.41493675    -0.37900
C731        C  0.25291154  0.49832315  0.09477441    -0.04600
C732        C  0.27750091  0.01517872  0.11125134    -0.01700
C733        C  0.27752172  0.01622132  0.14338915     0.03300
C734        C  0.25323202  0.49952936  0.15983531    -0.04600
C735        C  0.22919808  0.48183654  0.14333766    -0.01700
C736        C  0.22894797  0.48143298  0.11113838     0.03300
C737        C  0.30323898  0.03075365  0.09529388     0.37900
C738        C  0.20402053  0.46482870  0.15937903     0.37900
C739        C  0.20331662  0.46444718  0.09487100     0.36300
C740        C  0.30279241  0.03403572  0.15953926     0.36300
N741        N  0.18262099  0.45086266  0.08226114    -0.38500
N742        N  0.32310016  0.04846258  0.17204884    -0.38500
N743        N  0.18395358  0.45128905  0.17219611    -0.37900
N744        N  0.32382366  0.04296203  0.08255873    -0.37900
C745        C  0.16947584  0.99954700  0.24632461    -0.04600
C746        C  0.16082422  0.52151353  0.22904652    -0.01700
C747        C  0.13224608  0.52303249  0.22944160     0.03300
C748        C  0.11173756  0.00213338  0.24635823    -0.04600
C749        C  0.11939117  0.97872031  0.26163971    -0.01700
C750        C  0.14821604  0.97769135  0.26220812     0.03300
C751        C  0.18107313  0.54216974  0.20964619     0.37900
C752        C  0.09767658  0.95581399  0.27717755     0.37900
C753        C  0.15590744  0.95460556  0.28022633     0.36300
C754        C  0.12367823  0.54554349  0.21126588     0.36300
N755        N  0.16193393  0.93613155  0.29459570    -0.38500
N756        N  0.11667449  0.56330101  0.19663133    -0.38500
N757        N  0.08038624  0.93726653  0.28924820    -0.37900
N758        N  0.19711908  0.55857323  0.19402062    -0.37900
C759        C  0.33695655  0.49943993  0.25665214    -0.04600
C760        C  0.35959752  0.52466372  0.24817948    -0.01700
C761        C  0.38822045  0.52335429  0.24669243     0.03300
C762        C  0.39473704  0.49693693  0.25323856    -0.04600
C763        C  0.37295657  0.97241332  0.26314393    -0.01700
C764        C  0.34440712  0.97356354  0.26496401     0.03300
C765        C  0.35390045  0.55214008  0.24009889     0.37900
C766        C  0.37986251  0.94565488  0.27228357     0.37900
C767        C  0.32288568  0.94752349  0.27582635     0.36300
C768        C  0.41079300  0.54918453  0.23739286     0.36300
N769        N  0.30592875  0.92661701  0.28445682    -0.38500
N770        N  0.42862607  0.56995513  0.23011807    -0.38500
N771        N  0.38538905  0.92437200  0.27954437    -0.37900
N772        N  0.34970403  0.57421827  0.23366272    -0.37900
C773        C  0.11099681  0.00528052  0.99817190    -0.04600
C774        C  0.11684489  0.97896255  0.50715517    -0.01700
C775        C  0.14518225  0.97669289  0.50625517     0.03300
C776        C  0.16846752  0.50109847  0.99721694    -0.04600
C777        C  0.16189453  0.52699827  0.98651630    -0.01700
C778        C  0.13342050  0.52878624  0.98654716     0.03300
C779        C  0.09408691  0.95439028  0.51876546     0.37900
C780        C  0.18403094  0.55200383  0.97457931     0.37900
C781        C  0.12702031  0.55488717  0.97390604     0.36300
C782        C  0.15000235  0.94891190  0.51486331     0.36300
N783        N  0.12193762  0.57563665  0.96372824    -0.38500
N784        N  0.15346817  0.92653359  0.52142330    -0.38500
N785        N  0.20151821  0.57201976  0.96500581    -0.37900
N786        N  0.07614950  0.93468086  0.52813303    -0.37900
C787        C  0.39294864  0.49708522  0.50256755    -0.04600
C788        C  0.37258328  0.97450409  0.01779674    -0.01700
C789        C  0.34397190  0.97550130  0.01962343     0.03300
C790        C  0.33493504  0.49844800  0.50447483    -0.04600
C791        C  0.35572464  0.52104794  0.48886928    -0.01700
C792        C  0.38470692  0.52074851  0.48879073     0.03300
C793        C  0.38105867  0.95012651  0.03212575     0.37900
C794        C  0.34727064  0.54388752  0.47118544     0.37900
C795        C  0.40575795  0.54422214  0.47316756     0.36300
C796        C  0.32419163  0.95330889  0.03806362     0.36300
N797        N  0.42242967  0.56309095  0.46077778    -0.38500
N798        N  0.30856417  0.93561029  0.05290326    -0.38500
N799        N  0.34061305  0.56203570  0.45688054    -0.37900
N800        N  0.38778369  0.93058911  0.04328217    -0.37900
C801        C  0.00963436  0.51117670  0.34434678    -0.04600
C802        C  0.02512644  0.49354550  0.36003918    -0.01700
C803        C  0.01962150  0.98390708  0.39047724     0.03300
C804        C  0.99785421  0.99111730  0.40554231    -0.04600
C805        C  0.48233374  0.00871342  0.38977065    -0.01700
C806        C  0.48851856  0.51910747  0.35970130     0.03300
C807        C  0.04626928  0.48431431  0.34462325     0.37900
C808        C  0.46035050  0.01708673  0.40470597     0.37900
C809        C  0.47340281  0.53849328  0.34478574     0.36300
C810        C  0.03590814  0.96579278  0.40584350     0.36300
N811        N  0.46127708  0.55390619  0.33301045    -0.38500
N812        N  0.04907470  0.95151399  0.41800286    -0.38500
N813        N  0.44263366  0.02356728  0.41643934    -0.37900
N814        N  0.06321598  0.47695532  0.33251512    -0.37900
C815        C  0.99888420  0.99321077  0.15422938    -0.04600
C816        C  0.48302872  0.51107602  0.13964666    -0.01700
C817        C  0.48784251  0.52123098  0.10915688     0.03300
C818        C  0.00922054  0.51446898  0.09311080    -0.04600
C819        C  0.02523052  0.99692996  0.10770267    -0.01700
C820        C  0.02036431  0.98659686  0.13815436     0.03300
C821        C  0.46200122  0.51970953  0.15597534     0.37900
C822        C  0.04655226  0.98869926  0.09142602     0.37900
C823        C  0.03707858  0.96837386  0.15238982     0.36300
C824        C  0.47083931  0.53903062  0.09462462     0.36300
N825        N  0.05054582  0.95395460  0.16361018    -0.38500
N826        N  0.45705621  0.55300478  0.08311205    -0.38500
N827        N  0.06359106  0.98214479  0.07857590    -0.37900
N828        N  0.44518912  0.52652623  0.16892760    -0.37900
C829        C  0.00091001  0.89206353  0.24060648    -0.04600
C830        C  0.99759933  0.87673851  0.21359671    -0.01700
C831        C  0.99809620  0.84758941  0.21505656     0.03300
C832        C  0.00152228  0.83348156  0.24345178    -0.04600
C833        C  0.50467886  0.84863077  0.27037670    -0.01700
C834        C  0.50461632  0.87786805  0.26899115     0.03300
C835        C  0.99355539  0.89079973  0.18423466     0.37900
C836        C  0.50637598  0.83374858  0.29975732     0.37900
C837        C  0.50645873  0.89268302  0.29704830     0.36300
C838        C  0.99466079  0.83190569  0.18736865     0.36300
N839        N  0.50780349  0.90443386  0.31942177    -0.38500
N840        N  0.99187166  0.81936582  0.16531691    -0.38500
N841        N  0.50728946  0.82228607  0.32351198    -0.37900
N842        N  0.99008155  0.90176688  0.16074376    -0.37900
C843        C  0.00385288  0.60847397  0.25692040    -0.04600
C844        C  0.49536965  0.62092920  0.22922963    -0.01700
C845        C  0.49263864  0.64929052  0.22802810     0.03300
C846        C  0.99838621  0.66553648  0.25435598    -0.04600
C847        C  0.00653206  0.65317868  0.28208413    -0.01700
C848        C  0.00935751  0.62481775  0.28340976     0.03300
C849        C  0.49127291  0.60542826  0.20135174     0.37900
C850        C  0.01209868  0.66980175  0.30928308     0.37900
C851        C  0.01802353  0.61265545  0.31212861     0.36300
C852        C  0.48549498  0.66233210  0.19918438     0.36300
N853        N  0.02515934  0.60318746  0.33506381    -0.38500
N854        N  0.48004427  0.67247876  0.17592683    -0.38500
N855        N  0.01648290  0.68310110  0.33092588    -0.37900
N856        N  0.48808125  0.59322120  0.17903883    -0.37900
C857        C  0.99837455  0.75070625  0.34081988    -0.04600
C858        C  0.02246825  0.76796039  0.35783550    -0.01700
C859        C  0.02138942  0.76997545  0.38961847     0.03300
C860        C  0.99683730  0.75367130  0.40557969    -0.04600
C861        C  0.47232592  0.73737785  0.38845935    -0.01700
C862        C  0.47325162  0.73551380  0.35662460     0.03300
C863        C  0.04845177  0.78468621  0.34285518     0.37900
C864        C  0.44567451  0.72235820  0.40320031     0.37900
C865        C  0.44820423  0.71696284  0.34060546     0.36300
C866        C  0.04510830  0.79058718  0.40536264     0.36300
N867        N  0.42811544  0.70216357  0.32806320    -0.38500
N868        N  0.06392224  0.80729448  0.41768045    -0.38500
N869        N  0.42428063  0.71048507  0.41470063    -0.37900
N870        N  0.06920050  0.79812506  0.33108089    -0.37900
C871        C  0.99974872  0.74917935  0.09081853    -0.04600
C872        C  0.02468459  0.76475467  0.10790546    -0.01700
C873        C  0.02476763  0.76478314  0.14005931     0.03300
C874        C  0.99980874  0.74953140  0.15607991    -0.04600
C875        C  0.47482616  0.73408451  0.13889610    -0.01700
C876        C  0.47510602  0.73326627  0.10687458     0.03300
C877        C  0.05053052  0.78151045  0.09270422     0.37900
C878        C  0.44846013  0.71831343  0.15377886     0.37900
C879        C  0.45004828  0.71471775  0.09084875     0.36300
C880        C  0.05073234  0.78148321  0.15624916     0.36300
N881        N  0.43007354  0.69978005  0.07826965    -0.38500
N882        N  0.07158143  0.79476066  0.16891368    -0.38500
N883        N  0.42732023  0.70572207  0.16537292    -0.37900
N884        N  0.07120768  0.79491096  0.08078148    -0.37900
C885        C  0.00125084  0.83534752  0.49584691    -0.04600
C886        C  0.00613342  0.85055494  0.02251528    -0.01700
C887        C  0.00643314  0.87990918  0.02155470     0.03300
C888        C  0.00123274  0.89401361  0.49397145    -0.04600
C889        C  0.49618664  0.87852546  0.46689897    -0.01700
C890        C  0.49615649  0.84930211  0.46791286     0.03300
C891        C  0.00916828  0.83556871  0.05156970     0.37900
C892        C  0.49062603  0.89240811  0.43787680     0.37900
C893        C  0.49016242  0.83332816  0.44024635     0.36300
C894        C  0.01004263  0.89487577  0.04973701     0.36300
N895        N  0.48519378  0.82064575  0.41816956    -0.38500
N896        N  0.01287100  0.90675692  0.07223282    -0.38500
N897        N  0.48585276  0.90324326  0.41473449    -0.37900
N898        N  0.01119258  0.82376298  0.07493188    -0.37900
C899        C  0.50063814  0.60988269  0.00365086    -0.04600
C900        C  0.00606784  0.62585046  0.03036773    -0.01700
C901        C  0.00387900  0.65438237  0.02933092     0.03300
C902        C  0.49572843  0.66702322  0.00179815    -0.04600
C903        C  0.48932084  0.65092185  0.47512058    -0.01700
C904        C  0.49171127  0.62242333  0.47604700     0.03300
C905        C  0.01373052  0.61293541  0.05911958     0.37900
C906        C  0.48135786  0.66398664  0.44664920     0.37900
C907        C  0.48713166  0.60693651  0.44813599     0.36300
C908        C  0.01001771  0.67079101  0.05668992     0.36300
N909        N  0.48350079  0.59475882  0.42576665    -0.38500
N910        N  0.01491050  0.68377673  0.07856160    -0.38500
N911        N  0.47502824  0.67413416  0.42375700    -0.37900
N912        N  0.01992151  0.60271454  0.08205209    -0.37900
O913        O  0.47559439  0.78504817  0.99605041    -0.73700
O914        O  0.47285368  0.70484669  0.49859114    -0.73700
O915        O  0.47540188  0.74417518  0.54112894    -0.73800
O916        O  0.47359452  0.74632945  0.95376853    -0.73800
O917        O  0.02143185  0.75837208  0.95536675    -0.73800
O918        O  0.02322150  0.75605071  0.54252808    -0.74700
O919        O  0.02098865  0.71743184  0.50013639    -0.73700
O920        O  0.02374083  0.79753478  0.99786112    -0.73800
Ni921      Ni  0.47268673  0.74467552  0.49741033     1.25400
Ni922      Ni  0.02393017  0.75780278  0.99909437     1.25400
C923        C  0.00014420  0.80439896  0.99660439     0.88500
C924        C  0.99647870  0.69800186  0.49988058     0.88400
C925        C  0.49959729  0.74977902  0.55645820     0.88400
C926        C  0.49729749  0.75280663  0.93993552     0.88600
O927        O  0.47509668  0.70275308  0.74961166    -0.73700
O928        O  0.47669612  0.78290010  0.74436825    -0.73700
O929        O  0.47636448  0.74335493  0.70361870    -0.73800
O930        O  0.47543978  0.74296459  0.79049730    -0.73800
O931        O  0.02327593  0.75581193  0.79362942    -0.73800
O932        O  0.02417526  0.75579315  0.70640723    -0.73700
O933        O  0.02485089  0.79602369  0.74729520    -0.73700
O934        O  0.02323669  0.71612297  0.75306135    -0.73800
Ni935      Ni  0.47419824  0.74246101  0.74693677     1.25400
Ni936      Ni  0.02559462  0.75642559  0.75017020     1.25400
C937        C  0.99898391  0.69635069  0.75224356     0.88500
C938        C  0.00106842  0.80255187  0.74506868     0.88400
C939        C  0.00034218  0.74960958  0.69037978     0.88400
C940        C  0.99913607  0.74961360  0.80664640     0.88600
O941        O  0.42403786  0.97238498  0.98561888    -0.80200
O942        O  0.05968487  0.98906260  0.99159643    -0.64900
O943        O  0.48088981  0.97968771  0.50732081    -1.11500
C944        C  0.50538794  0.58085674  0.50427034     1.06700
O945        O  0.08008732  0.53194776  0.51244808    -0.78100
O946        O  0.03886722  0.53172523  0.55148809    -0.65600
Ni947      Ni  0.45278304  0.95282235  0.98236482     1.34900
C948        C  0.01330666  0.52415282  0.56067597     0.85500
O949        O  0.01594871  0.94367486  0.00708013    -0.78600
O950        O  0.47644847  0.92792101  0.97741243    -0.88900
C951        C  0.08161538  0.00865733  0.50077331     0.85000
O952        O  0.46649307  0.97519250  0.94635138    -0.67100
O953        O  0.02819644  0.57791784  0.51814306    -0.86400
C954        C  0.99219043  0.98144564  0.93760989     0.85900
C955        C  0.99787107  0.92360692  0.99285910     1.07400
H956        H  0.02576027  0.52994644  0.96978031     0.39200
O957        O  0.02308212  0.52443443  0.99111896    -1.09000
O958        O  0.49153933  0.52483430  0.54312609    -0.65700
Ni959      Ni  0.48364008  0.51989142  0.49984988     1.26300
O960        O  0.01313147  0.97925250  0.95564009    -0.65900
O961        O  0.48706220  0.55997624  0.49155434    -0.78200
C962        C  0.42249187  0.49492892  0.99888524     0.85200
O963        O  0.44419327  0.51444473  0.50798628    -0.65400
Ni964      Ni  0.05164314  0.55229030  0.51443582     1.27400
Ni965      Ni  0.02019363  0.98405059  0.99896389     1.26100
H966        H  0.47767859  0.97382105  0.52852923     0.39800
O967        O  0.42558712  0.97275650  0.73444748    -0.80200
O968        O  0.06058905  0.98664551  0.73976753    -0.64900
O969        O  0.48220310  0.97780154  0.75595025    -1.11500
C970        C  0.50847478  0.57909775  0.75747817     1.06700
O971        O  0.08162493  0.52843828  0.76227793    -0.78100
O972        O  0.04047838  0.52743829  0.80258257    -0.65600
Ni973      Ni  0.45351379  0.95218199  0.73054274     1.34900
C974        C  0.01489013  0.52059358  0.81173117     0.85500
O975        O  0.01638900  0.94142133  0.75377348    -0.78600
O976        O  0.47637390  0.92648049  0.72457583    -0.88900
C977        C  0.08284102  0.00575063  0.74943382     0.85000
O978        O  0.46742248  0.97514234  0.69508874    -0.67100
O979        O  0.03093314  0.57522236  0.77130286    -0.86400
C980        C  0.99305761  0.98177287  0.68621905     0.85900
C981        C  0.99784404  0.92169923  0.73958939     1.07400
H982        H  0.02740472  0.52916078  0.72055900     0.39200
O983        O  0.02455347  0.52272029  0.74171236    -1.09000
O984        O  0.49330139  0.52153818  0.79405313    -0.65700
Ni985      Ni  0.48547607  0.51837082  0.75061657     1.26300
O986        O  0.01409200  0.97901609  0.70380950    -0.65900
O987        O  0.48975223  0.55878809  0.74432722    -0.78200
C988        C  0.42402497  0.49447475  0.74877421     0.85200
O989        O  0.44621939  0.51321676  0.75917300    -0.65400
Ni990      Ni  0.05366128  0.54913244  0.76601102     1.27400
Ni991      Ni  0.02125306  0.98201136  0.74740790     1.26100
H992        H  0.47899769  0.97116001  0.77687627     0.39800
O993        O  0.21982210  0.52374761  0.99985842    -0.73700
O994        O  0.29837511  0.52300764  0.00283467    -0.73700
O995        O  0.25802602  0.52386850  0.95715059    -0.73800
O996        O  0.26014241  0.52287059  0.54507363    -0.73800
O997        O  0.24432881  0.97446798  0.54679382    -0.73800
O998        O  0.24407974  0.97505956  0.95903199    -0.73700
O999        O  0.28377145  0.97458022  0.50500594    -0.73700
O1000       O  0.20479627  0.97568464  0.50021865    -0.73800
Ni1001     Ni  0.25956564  0.52503295  0.00115645     1.25400
Ni1002     Ni  0.24373976  0.97329210  0.50288399     1.25400
C1003       C  0.19916652  0.50022368  0.49932326     0.88500
C1004       C  0.30431998  0.49881787  0.00433407     0.88400
C1005       C  0.25115490  0.49984329  0.94359581     0.88400
C1006       C  0.25249792  0.49859330  0.56054379     0.88600
O1007       O  0.24676311  0.97562750  0.79744504    -0.73700
O1008       O  0.24591493  0.97552045  0.70968241    -0.73700
O1009       O  0.28580419  0.97582596  0.75549223    -0.73800
O1010       O  0.20670542  0.97532868  0.75100899    -0.73800
O1011       O  0.22044855  0.52400362  0.74788118    -0.73800
O1012       O  0.29980445  0.52429013  0.75447821    -0.73700
O1013       O  0.26078349  0.52418110  0.70723230    -0.73700
O1014       O  0.25953804  0.52443217  0.79490373    -0.73800
Ni1015     Ni  0.24581694  0.97389500  0.75356104     1.25400
Ni1016     Ni  0.26063793  0.52594950  0.75102280     1.25400
C1017       C  0.25306355  0.50029047  0.81066737     0.88500
C1018       C  0.25338518  0.49997593  0.69398184     0.88400
C1019       C  0.30604253  0.50020943  0.75575663     0.88400
C1020       C  0.20035627  0.49978264  0.74849873     0.88600
C1021       C  0.25156998  0.50008902  0.90954532    -0.04600
C1022       C  0.23032987  0.50834649  0.89073577    -0.01700
C1023       C  0.23095260  0.50859589  0.85853472     0.03300
C1024       C  0.25268445  0.50037288  0.84468879    -0.04600
C1025       C  0.27314719  0.99062787  0.86355754    -0.01700
C1026       C  0.27234627  0.99023820  0.89573639     0.03300
C1027       C  0.20699443  0.51533587  0.90445333     0.37900
C1028       C  0.29587697  0.98252209  0.84988470     0.37900
C1029       C  0.29352427  0.98053687  0.91476027     0.36300
C1030       C  0.20874759  0.51665156  0.83955930     0.36300
N1031       N  0.31033116  0.97270204  0.92998109    -0.38500
N1032       N  0.19104463  0.52303309  0.82436040    -0.38500
N1033       N  0.31424023  0.97630180  0.83910817    -0.37900
N1034       N  0.18801815  0.52061437  0.91504721    -0.37900
C1035       C  0.25297038  0.49843117  0.59477402    -0.04600
C1036       C  0.27707355  0.01549403  0.61118801    -0.01700
C1037       C  0.27711570  0.01639957  0.64333164     0.03300
C1038       C  0.25327877  0.49966655  0.65981123    -0.04600
C1039       C  0.22921266  0.48202275  0.64331582    -0.01700
C1040       C  0.22896214  0.48162006  0.61112076     0.03300
C1041       C  0.30269790  0.03140869  0.59522078     0.37900
C1042       C  0.20400716  0.46507293  0.65934732     0.37900
C1043       C  0.20329383  0.46472478  0.59482599     0.36300
C1044       C  0.30228533  0.03440439  0.65945538     0.36300
N1045       N  0.18259150  0.45123007  0.58215113    -0.38500
N1046       N  0.32251815  0.04901222  0.67190908    -0.38500
N1047       N  0.18390811  0.45157218  0.67213862    -0.37900
N1048       N  0.32318233  0.04390798  0.58246986    -0.37900
C1049       C  0.16945259  0.99924708  0.74632140    -0.04600
C1050       C  0.16078738  0.52157493  0.72886119    -0.01700
C1051       C  0.13215408  0.52294607  0.72917534     0.03300
C1052       C  0.11171930  0.00190479  0.74615906    -0.04600
C1053       C  0.11925196  0.97834107  0.76125927    -0.01700
C1054       C  0.14806446  0.97724999  0.76189320     0.03300
C1055       C  0.18101082  0.54230767  0.70950109     0.37900
C1056       C  0.09745480  0.95541726  0.77667498     0.37900
C1057       C  0.15559896  0.95393599  0.77964791     0.36300
C1058       C  0.12349587  0.54538304  0.71096052     0.36300
N1059       N  0.16149511  0.93527240  0.79379748    -0.38500
N1060       N  0.11641798  0.56308398  0.69630524    -0.38500
N1061       N  0.08010097  0.93689127  0.78869221    -0.37900
N1062       N  0.19702902  0.55878426  0.69390986    -0.37900
C1063       C  0.33706100  0.49978838  0.75677914    -0.04600
C1064       C  0.35975776  0.52499363  0.74839896    -0.01700
C1065       C  0.38835749  0.52360856  0.74690365     0.03300
C1066       C  0.39480876  0.49715485  0.75345552    -0.04600
C1067       C  0.37305969  0.97237229  0.76357226    -0.01700
C1068       C  0.34446422  0.97345061  0.76517897     0.03300
C1069       C  0.35414360  0.55253150  0.74045413     0.37900
C1070       C  0.38009460  0.94578795  0.77323053     0.37900
C1071       C  0.32295142  0.94742162  0.77607785     0.36300
C1072       C  0.41096120  0.54939090  0.73756023     0.36300
N1073       N  0.30599736  0.92651496  0.78471301    -0.38500
N1074       N  0.42881156  0.57012648  0.73023428    -0.38500
N1075       N  0.38572918  0.92465209  0.78093265    -0.37900
N1076       N  0.35000749  0.57465673  0.73413746    -0.37900
C1077       C  0.11086614  0.00524003  0.49795070    -0.04600
C1078       C  0.11687839  0.97893815  0.00730933    -0.01700
C1079       C  0.14521402  0.97661827  0.00657476     0.03300
C1080       C  0.16843086  0.50142923  0.49752960    -0.04600
C1081       C  0.16194317  0.52746773  0.48718217    -0.01700
C1082       C  0.13347909  0.52929767  0.48723772     0.03300
C1083       C  0.09400895  0.95433978  0.01867678     0.37900
C1084       C  0.18415904  0.55260277  0.47561284     0.37900
C1085       C  0.12719453  0.55556197  0.47493616     0.36300
C1086       C  0.14999515  0.94886772  0.01543271     0.36300
N1087       N  0.12222466  0.57645252  0.46502873    -0.38500
N1088       N  0.15341387  0.92650897  0.02221711    -0.38500
N1089       N  0.20171127  0.57273267  0.46635612    -0.37900
N1090       N  0.07597680  0.93459930  0.02782515    -0.37900
C1091       C  0.39321020  0.49744986  0.00274092    -0.04600
C1092       C  0.37254932  0.97474814  0.51796209    -0.01700
C1093       C  0.34393827  0.97575000  0.51977075     0.03300
C1094       C  0.33517964  0.49877663  0.00466915    -0.04600
C1095       C  0.35594460  0.52136749  0.98902519    -0.01700
C1096       C  0.38493369  0.52107677  0.98891510     0.03300
C1097       C  0.38099140  0.95031917  0.53221356     0.37900
C1098       C  0.34744479  0.54416647  0.97131618     0.37900
C1099       C  0.40594607  0.54450487  0.97319633     0.36300
C1100       C  0.32410847  0.95345829  0.53806266     0.36300
N1101       N  0.42258015  0.56333915  0.96071946    -0.38500
N1102       N  0.30845029  0.93566620  0.55277919    -0.38500
N1103       N  0.34074058  0.56227568  0.95698966    -0.37900
N1104       N  0.38770902  0.93075122  0.54329926    -0.37900
C1105       C  0.00970962  0.51124286  0.84430579    -0.04600
C1106       C  0.02510324  0.49350383  0.85996262    -0.01700
C1107       C  0.02003757  0.98439287  0.89027870     0.03300
C1108       C  0.99816260  0.99147890  0.90529145    -0.04600
C1109       C  0.48260560  0.00902558  0.88948771    -0.01700
C1110       C  0.48859686  0.51918613  0.85965441     0.03300
C1111       C  0.04627012  0.48429640  0.84456161     0.37900
C1112       C  0.46056943  0.01734464  0.90438068     0.37900
C1113       C  0.47363602  0.53873667  0.84480210     0.36300
C1114       C  0.03645496  0.96643457  0.90570975     0.36300
N1115       N  0.46164632  0.55429454  0.83308400    -0.38500
N1116       N  0.04972782  0.95229530  0.91794332    -0.38500
N1117       N  0.44280829  0.02379274  0.91606685    -0.37900
N1118       N  0.06324270  0.47696972  0.83246194    -0.37900
C1119       C  0.99860416  0.99287708  0.65414299    -0.04600
C1120       C  0.48239614  0.51048947  0.63965128    -0.01700
C1121       C  0.48712326  0.52061030  0.60914289     0.03300
C1122       C  0.00860976  0.51402197  0.59310755    -0.04600
C1123       C  0.02490952  0.99652040  0.60760621    -0.01700
C1124       C  0.01994678  0.98608708  0.63801121     0.03300
C1125       C  0.46133737  0.51905789  0.65599998     0.37900
C1126       C  0.04611251  0.98815139  0.59128035     0.37900
C1127       C  0.03643077  0.96760361  0.65215491     0.36300
C1128       C  0.46988581  0.53816479  0.59458263     0.36300
N1129       N  0.04971605  0.95298318  0.66331525    -0.38500
N1130       N  0.45589380  0.55191983  0.58305253    -0.38500
N1131       N  0.06306667  0.98148572  0.57840605    -0.37900
N1132       N  0.44450760  0.52583068  0.66896903    -0.37900
C1133       C  0.00084153  0.89188979  0.74055238    -0.04600
C1134       C  0.99736585  0.87649646  0.71356344    -0.01700
C1135       C  0.99800648  0.84739516  0.71502824     0.03300
C1136       C  0.00169141  0.83338766  0.74340802    -0.04600
C1137       C  0.50497312  0.84857810  0.77031465    -0.01700
C1138       C  0.50476669  0.87777082  0.76892518     0.03300
C1139       C  0.99296653  0.89041081  0.68421878     0.37900
C1140       C  0.50699921  0.83377864  0.79968438     0.37900
C1141       C  0.50666454  0.89260010  0.79698000     0.36300
C1142       C  0.99451386  0.83166883  0.68735946     0.36300
N1143       N  0.50804276  0.90435797  0.81935446    -0.38500
N1144       N  0.99170018  0.81909371  0.66532880    -0.38500
N1145       N  0.50820863  0.82235067  0.82341097    -0.37900
N1146       N  0.98918456  0.90123286  0.66073716    -0.37900
C1147       C  0.00416593  0.60848306  0.75678192    -0.04600
C1148       C  0.49553634  0.62090249  0.72914645    -0.01700
C1149       C  0.49293870  0.64930697  0.72795856     0.03300
C1150       C  0.99894217  0.66561174  0.75424906    -0.04600
C1151       C  0.00727513  0.65330304  0.78191421    -0.01700
C1152       C  0.00997486  0.62490369  0.78322510     0.03300
C1153       C  0.49112221  0.60530464  0.70130458     0.37900
C1154       C  0.01315238  0.67000657  0.80906606     0.37900
C1155       C  0.01881587  0.61277495  0.81188379     0.36300
C1156       C  0.48569903  0.66232921  0.69914638     0.36300
N1157       N  0.02609406  0.60331643  0.83475546    -0.38500
N1158       N  0.48018566  0.67244106  0.67589526    -0.38500
N1159       N  0.01779117  0.68336690  0.83067362    -0.37900
N1160       N  0.48765834  0.59300858  0.67902772    -0.37900
C1161       C  0.99851442  0.75061938  0.84080564    -0.04600
C1162       C  0.02275140  0.76749074  0.85794379    -0.01700
C1163       C  0.02166756  0.76943847  0.88973736     0.03300
C1164       C  0.99695526  0.75340759  0.90561662    -0.04600
C1165       C  0.47232316  0.73748168  0.88839251    -0.01700
C1166       C  0.47321527  0.73578153  0.85652354     0.03300
C1167       C  0.04891965  0.78391145  0.84309476     0.37900
C1168       C  0.44556972  0.72267610  0.90305694     0.37900
C1169       C  0.44787034  0.71785899  0.84037365     0.36300
C1170       C  0.04560856  0.78969802  0.90557982     0.36300
N1171       N  0.42751935  0.70359042  0.82774338    -0.38500
N1172       N  0.06461057  0.80611876  0.91797737    -0.38500
N1173       N  0.42410417  0.71095634  0.91449719    -0.37900
N1174       N  0.06982741  0.79710322  0.83144226    -0.37900
C1175       C  0.00020261  0.74918041  0.59079068    -0.04600
C1176       C  0.02512573  0.76484952  0.60783227    -0.01700
C1177       C  0.02527354  0.76482609  0.64000015     0.03300
C1178       C  0.00034179  0.74954736  0.65605234    -0.04600
C1179       C  0.47535680  0.73405845  0.63889450    -0.01700
C1180       C  0.47562318  0.73318778  0.60688482     0.03300
C1181       C  0.05085437  0.78180109  0.59256041     0.37900
C1182       C  0.44898690  0.71831053  0.65378377     0.37900
C1183       C  0.45061545  0.71451198  0.59090457     0.36300
C1184       C  0.05126582  0.78149057  0.65617142     0.36300
N1185       N  0.43068573  0.69947186  0.57835870    -0.38500
N1186       N  0.07214064  0.79473162  0.66882294    -0.38500
N1187       N  0.42784507  0.70574031  0.66538585    -0.37900
N1188       N  0.07142692  0.79538306  0.58057700    -0.37900
C1189       C  0.00118088  0.83528685  0.99551752    -0.04600
C1190       C  0.00619770  0.85057612  0.52287234    -0.01700
C1191       C  0.00641252  0.87990564  0.52196502     0.03300
C1192       C  0.00137872  0.89402935  0.99352456    -0.04600
C1193       C  0.49640372  0.87853010  0.96646155    -0.01700
C1194       C  0.49628159  0.84927102  0.96752992     0.03300
C1195       C  0.00922881  0.83555341  0.55190489     0.37900
C1196       C  0.49104205  0.89245531  0.93739471     0.37900
C1197       C  0.49047724  0.83332107  0.93985186     0.36300
C1198       C  0.01004792  0.89484933  0.55016537     0.36300
N1199       N  0.48568786  0.82066919  0.91775515    -0.38500
N1200       N  0.01289329  0.90671012  0.57267616    -0.38500
N1201       N  0.48643834  0.90334771  0.91422440    -0.37900
N1202       N  0.01122034  0.82372045  0.57525847    -0.37900
C1203       C  0.50014837  0.60977337  0.50362240    -0.04600
C1204       C  0.00520467  0.62565551  0.53037846    -0.01700
C1205       C  0.00322711  0.65426533  0.52923141     0.03300
C1206       C  0.49575201  0.66710762  0.50151385    -0.04600
C1207       C  0.48894976  0.65074600  0.97547718    -0.01700
C1208       C  0.49168536  0.62238694  0.97624602     0.03300
C1209       C  0.01223639  0.61255902  0.55928727     0.37900
C1210       C  0.48029884  0.66360006  0.94720399     0.37900
C1211       C  0.48701534  0.60695005  0.94829600     0.36300
C1212       C  0.00889305  0.67054710  0.55666723     0.36300
N1213       N  0.48335030  0.59482998  0.92588720    -0.38500
N1214       N  0.01339756  0.68341943  0.57860889    -0.38500
N1215       N  0.47339622  0.67357991  0.92447955    -0.37900
N1216       N  0.01792299  0.60220762  0.58235688    -0.37900
O1217       O  0.97572006  0.28515069  0.49626712    -0.73700
O1218       O  0.97301429  0.20480957  0.99860756    -0.73700
O1219       O  0.97546568  0.24407141  0.04118404    -0.73800
O1220       O  0.97364167  0.24652762  0.45383908    -0.73800
O1221       O  0.52148533  0.25867706  0.45529847    -0.73800
O1222       O  0.52329461  0.25602400  0.04260935    -0.74700
O1223       O  0.52115197  0.21746403  0.00020499    -0.73700
O1224       O  0.52386820  0.29769084  0.49801009    -0.73800
Ni1225     Ni  0.97278193  0.24461859  0.99746143     1.25400
Ni1226     Ni  0.52410293  0.25797710  0.49904517     1.25400
C1227       C  0.50025452  0.30451871  0.49687016     0.88500
C1228       C  0.49666235  0.19800511  0.99990815     0.88400
C1229       C  0.99965836  0.24968083  0.05652079     0.88400
C1230       C  0.99730996  0.25308805  0.43993291     0.88600
O1231       O  0.97504937  0.20278257  0.24968512    -0.73700
O1232       O  0.97646143  0.28291055  0.24429837    -0.73700
O1233       O  0.97617504  0.24330129  0.20360976    -0.73800
O1234       O  0.97532475  0.24304770  0.29051564    -0.73800
O1235       O  0.52316721  0.25599575  0.29360969    -0.73800
O1236       O  0.52399609  0.25583483  0.20639927    -0.73700
O1237       O  0.52461687  0.29611229  0.24719754    -0.73700
O1238       O  0.52319021  0.21625768  0.25310620    -0.73800
Ni1239     Ni  0.97404832  0.24247349  0.24694324     1.25400
Ni1240     Ni  0.52544811  0.25654051  0.25014871     1.25400
C1241       C  0.49897009  0.19643756  0.25231202     0.88500
C1242       C  0.50081403  0.30260104  0.24496260     0.88400
C1243       C  0.50016048  0.24959594  0.19037774     0.88400
C1244       C  0.49903550  0.24976336  0.30664658     0.88600
O1245       O  0.92399217  0.47234860  0.48615611    -0.80200
O1246       O  0.55969784  0.48924430  0.49194838    -0.64900
O1247       O  0.98111798  0.47971696  0.00747701    -1.11500
C1248       C  0.00556334  0.08084790  0.00395542     1.06700
O1249       O  0.58009896  0.03165403  0.01229713    -0.78100
O1250       O  0.53889282  0.03169573  0.05119293    -0.65600
Ni1251     Ni  0.95275947  0.45281977  0.48294073     1.34900
C1252       C  0.51332654  0.02408568  0.06036205     0.85500
O1253       O  0.51603884  0.44379630  0.50752500    -0.78600
O1254       O  0.97643738  0.42795299  0.47802391    -0.88900
C1255       C  0.58181315  0.50865245  0.00075985     0.85000
O1256       O  0.96639464  0.47511377  0.44686752    -0.67100
O1257       O  0.52842904  0.07790478  0.01769431    -0.86400
C1258       C  0.49207215  0.48137385  0.43806943     0.85900
C1259       C  0.49793207  0.42369496  0.49336993     1.07400
H1260       H  0.52567071  0.02991085  0.46969146     0.39200
O1261       O  0.52289520  0.02439494  0.49101692    -1.09000
O1262       O  0.99154434  0.02468438  0.04279124    -0.65700
Ni1263     Ni  0.98370000  0.01985840  0.99948036     1.26300
O1264       O  0.51307627  0.47927707  0.45605712    -0.65900
O1265       O  0.98716970  0.05997505  0.99129715    -0.78200
C1266       C  0.92229075  0.99487288  0.49852471     0.85200
O1267       O  0.94424207  0.01443752  0.00755181    -0.65400
Ni1268     Ni  0.55175669  0.05214670  0.01412049     1.27400
Ni1269     Ni  0.52020281  0.48415898  0.49936663     1.26100
H1270       H  0.97796184  0.47382581  0.02868891     0.39800
O1271       O  0.92548344  0.47288327  0.23418032    -0.80200
O1272       O  0.56049330  0.48681154  0.24025783    -0.64900
O1273       O  0.98199912  0.47778949  0.25606253    -1.11500
C1274       C  0.00859201  0.07919831  0.25757553     1.06700
O1275       O  0.58181021  0.02860045  0.26228313    -0.78100
O1276       O  0.54057905  0.02745907  0.30257302    -0.65600
Ni1277     Ni  0.95346108  0.45232366  0.23037660     1.34900
C1278       C  0.51497573  0.02058324  0.31168551     0.85500
O1279       O  0.51626750  0.44150833  0.25391256    -0.78600
O1280       O  0.97638845  0.42665746  0.22447702    -0.88900
C1281       C  0.58271716  0.50598086  0.24986678     0.85000
O1282       O  0.96758933  0.47545346  0.19508194    -0.67100
O1283       O  0.53102736  0.07530453  0.27144345    -0.86400
C1284       C  0.49328347  0.48212780  0.18638011     0.85900
C1285       C  0.49779967  0.42183534  0.23958520     1.07400
H1286       H  0.52762617  0.02935206  0.22054656     0.39200
O1287       O  0.52474164  0.02287652  0.24168636    -1.09000
O1288       O  0.99340729  0.02154714  0.29398062    -0.65700
Ni1289     Ni  0.98563915  0.01848381  0.25053019     1.26300
O1290       O  0.51420740  0.47927568  0.20407774    -0.65900
O1291       O  0.98990893  0.05891241  0.24434321    -0.78200
C1292       C  0.92418761  0.99453162  0.24853799     0.85200
O1293       O  0.94634793  0.01326753  0.25902284    -0.65400
Ni1294     Ni  0.55380285  0.04925543  0.26607180     1.27400
Ni1295     Ni  0.52111129  0.48210284  0.24770791     1.26100
H1296       H  0.97868333  0.47103031  0.27694080     0.39800
O1297       O  0.71972428  0.02373288  0.49980792    -0.73700
O1298       O  0.79820417  0.02282517  0.50271102    -0.73700
O1299       O  0.75784522  0.02370891  0.45706819    -0.73800
O1300       O  0.76020834  0.02252277  0.04503944    -0.73800
O1301       O  0.74451461  0.47453497  0.04684552    -0.73800
O1302       O  0.74408177  0.47537711  0.45910161    -0.73700
O1303       O  0.78400366  0.47476488  0.00507207    -0.73700
O1304       O  0.70498514  0.47568916  0.00021264    -0.73800
Ni1305     Ni  0.75943103  0.02492678  0.50106609     1.25400
Ni1306     Ni  0.74395798  0.47339743  0.00291479     1.25400
C1307       C  0.69913847  0.99981618  0.99936790     0.88500
C1308       C  0.80410968  0.99861747  0.50419653     0.88400
C1309       C  0.75093773  0.99966296  0.44354802     0.88400
C1310       C  0.75257579  0.99824668  0.06051105     0.88600
O1311       O  0.74654959  0.47565366  0.29752493    -0.73700
O1312       O  0.74578573  0.47566043  0.20977088    -0.73700
O1313       O  0.78560954  0.47586397  0.25559218    -0.73800
O1314       O  0.70653155  0.47547596  0.25109173    -0.73800
O1315       O  0.72054909  0.02389434  0.24771368    -0.73800
O1316       O  0.79988224  0.02412669  0.25453720    -0.73700
O1317       O  0.76099899  0.02404676  0.20718304    -0.73700
O1318       O  0.75947608  0.02426485  0.29485926    -0.73800
Ni1319     Ni  0.74563313  0.47398292  0.25364276     1.25400
Ni1320     Ni  0.76072455  0.02580649  0.25097664     1.25400
C1321       C  0.75294881  0.00011479  0.31061491     0.88500
C1322       C  0.75360083  0.99983481  0.19394144     0.88400
C1323       C  0.80611929  0.00004739  0.25575489     0.88400
C1324       C  0.70044652  0.99968334  0.24834022     0.88600
C1325       C  0.75133462  0.99985562  0.40950186    -0.04600
C1326       C  0.73058417  0.00889704  0.39067235    -0.01700
C1327       C  0.73121775  0.00913915  0.35846897     0.03300
C1328       C  0.75249487  0.00016141  0.34464388    -0.04600
C1329       C  0.77309431  0.49082450  0.36363661    -0.01700
C1330       C  0.77241534  0.49061144  0.39581146     0.03300
C1331       C  0.70769543  0.01667678  0.40439112     0.37900
C1332       C  0.79580451  0.48269815  0.34994953     0.37900
C1333       C  0.79381871  0.48126415  0.41483512     0.36300
C1334       C  0.70943612  0.01790483  0.33948258     0.36300
N1335       N  0.81081921  0.47374432  0.43006779    -0.38500
N1336       N  0.69205200  0.02483703  0.32428568    -0.38500
N1337       N  0.81413990  0.47643409  0.33916838    -0.37900
N1338       N  0.68910375  0.02259283  0.41505186    -0.37900
C1339       C  0.75310287  0.99810368  0.09474478    -0.04600
C1340       C  0.77715945  0.51561479  0.11131296    -0.01700
C1341       C  0.77714372  0.51656524  0.14345682     0.03300
C1342       C  0.75348886  0.99948332  0.15977570    -0.04600
C1343       C  0.72932391  0.98196327  0.14331517    -0.01700
C1344       C  0.72904093  0.98148119  0.11112622     0.03300
C1345       C  0.80280170  0.53153710  0.09538016     0.37900
C1346       C  0.70406340  0.96521419  0.15938648     0.37900
C1347       C  0.70328948  0.96470121  0.09487950     0.36300
C1348       C  0.80226657  0.53462068  0.15961155     0.36300
N1349       N  0.68250550  0.95128984  0.08227249    -0.38500
N1350       N  0.82245556  0.54925508  0.17211075    -0.38500
N1351       N  0.68393139  0.95187683  0.17222596    -0.37900
N1352       N  0.82330788  0.54403329  0.08266219    -0.37900
C1353       C  0.66932299  0.49945624  0.24656463    -0.04600
C1354       C  0.66089086  0.02147909  0.22867536    -0.01700
C1355       C  0.63228784  0.02292654  0.22906323     0.03300
C1356       C  0.61160890  0.50215870  0.24657016    -0.04600
C1357       C  0.61918164  0.47863328  0.26171085    -0.01700
C1358       C  0.64799504  0.47755332  0.26230995     0.03300
C1359       C  0.68107354  0.04207648  0.20916463     0.37900
C1360       C  0.59739758  0.45565896  0.27707690     0.37900
C1361       C  0.65559979  0.45435920  0.28021655     0.36300
C1362       C  0.62359436  0.04526891  0.21071999     0.36300
N1363       N  0.66154782  0.43579799  0.29450472    -0.38500
N1364       N  0.61646939  0.06287599  0.19595122    -0.38500
N1365       N  0.58005392  0.43705579  0.28900680    -0.37900
N1366       N  0.69705581  0.05844086  0.19344686    -0.37900
C1367       C  0.83714534  0.99964420  0.25664264    -0.04600
C1368       C  0.85980459  0.02487806  0.24823102    -0.01700
C1369       C  0.88843099  0.02356364  0.24674237     0.03300
C1370       C  0.89493212  0.99712501  0.25320710    -0.04600
C1371       C  0.87279386  0.47225106  0.26328157    -0.01700
C1372       C  0.84423912  0.47339203  0.26508573     0.03300
C1373       C  0.85411081  0.05235834  0.24016300     0.37900
C1374       C  0.87975494  0.44555731  0.27259387     0.37900
C1375       C  0.82274282  0.44740347  0.27609786     0.36300
C1376       C  0.91101522  0.04940397  0.23748845     0.36300
N1377       N  0.80580389  0.42654369  0.28486060    -0.38500
N1378       N  0.92885951  0.07017792  0.23024273    -0.38500
N1379       N  0.88532979  0.42433148  0.28001452    -0.37900
N1380       N  0.84990047  0.07442769  0.23371027    -0.37900
C1381       C  0.61104311  0.50520679  0.99794595    -0.04600
C1382       C  0.61696150  0.47931911  0.50750931    -0.01700
C1383       C  0.64526881  0.47699033  0.50655972     0.03300
C1384       C  0.66840529  0.00103254  0.99755266    -0.04600
C1385       C  0.66195763  0.02707464  0.98714691    -0.01700
C1386       C  0.63352460  0.02897673  0.98723200     0.03300
C1387       C  0.59421072  0.45480275  0.51922685     0.37900
C1388       C  0.68418391  0.05213269  0.97544845     0.37900
C1389       C  0.62734210  0.05534260  0.97509995     0.36300
C1390       C  0.65003792  0.44918670  0.51516414     0.36300
N1391       N  0.62246043  0.07632531  0.96535436    -0.38500
N1392       N  0.65344914  0.42678372  0.52171354    -0.38500
N1393       N  0.70174357  0.07218735  0.96606169    -0.37900
N1394       N  0.57628634  0.43514108  0.52869771    -0.37900
C1395       C  0.89300131  0.99734603  0.50239166    -0.04600
C1396       C  0.87268675  0.47483726  0.01821040    -0.01700
C1397       C  0.84409108  0.47589943  0.01998763     0.03300
C1398       C  0.83495454  0.99856306  0.50440990    -0.04600
C1399       C  0.85564392  0.02111877  0.48863248    -0.01700
C1400       C  0.88465349  0.02090779  0.48851110     0.03300
C1401       C  0.88102160  0.45031102  0.03236423     0.37900
C1402       C  0.84703266  0.04377318  0.47077695     0.37900
C1403       C  0.90562239  0.04436358  0.47276876     0.36300
C1404       C  0.82420258  0.45361133  0.03822896     0.36300
N1405       N  0.92223397  0.06322175  0.46029309    -0.38500
N1406       N  0.80849065  0.43583356  0.05290940    -0.38500
N1407       N  0.84022537  0.06175320  0.45632612    -0.37900
N1408       N  0.88763209  0.43065331  0.04337117    -0.37900
C1409       C  0.50975618  0.01119507  0.34425093    -0.04600
C1410       C  0.52530883  0.99364492  0.35999232    -0.01700
C1411       C  0.51955525  0.48392525  0.39057608     0.03300
C1412       C  0.49793295  0.49130089  0.40572012    -0.04600
C1413       C  0.98248148  0.50898450  0.38999986    -0.01700
C1414       C  0.98848091  0.01894971  0.35952243     0.03300
C1415       C  0.54667189  0.98464599  0.34469179     0.37900
C1416       C  0.96069986  0.51757030  0.40505190     0.37900
C1417       C  0.97331963  0.03829214  0.34459401     0.36300
C1418       C  0.53580895  0.46577229  0.40592720     0.36300
N1419       N  0.96115903  0.05367396  0.33281742    -0.38500
N1420       N  0.54894701  0.45147149  0.41809769    -0.38500
N1421       N  0.94314455  0.52422758  0.41688067    -0.37900
N1422       N  0.56380512  0.97749064  0.33267815    -0.37900
C1423       C  0.49903786  0.49339351  0.15437860    -0.04600
C1424       C  0.98267227  0.01069114  0.13946803    -0.01700
C1425       C  0.98725732  0.02066426  0.10889492     0.03300
C1426       C  0.50867460  0.01400888  0.09281810    -0.04600
C1427       C  0.52568010  0.49731073  0.10802593    -0.01700
C1428       C  0.52057467  0.48678776  0.13838620     0.03300
C1429       C  0.96169687  0.01934678  0.15586008     0.37900
C1430       C  0.54720274  0.48925697  0.09190259     0.37900
C1431       C  0.53707148  0.46834359  0.15259538     0.36300
C1432       C  0.96992814  0.03810770  0.09429565     0.36300
N1433       N  0.55035264  0.45373841  0.16380077    -0.38500
N1434       N  0.95586410  0.05176981  0.08272420    -0.38500
N1435       N  0.56443334  0.48286438  0.07920581    -0.37900
N1436       N  0.94493719  0.02619037  0.16886975    -0.37900
C1437       C  0.50079760  0.39202341  0.24051004    -0.04600
C1438       C  0.49737328  0.37667503  0.21349596    -0.01700
C1439       C  0.49785612  0.34751939  0.21493734     0.03300
C1440       C  0.50141813  0.33344164  0.24331312    -0.04600
C1441       C  0.00474863  0.34862710  0.27022794    -0.01700
C1442       C  0.00465477  0.37785197  0.26886678     0.03300
C1443       C  0.49329625  0.39073524  0.18414177     0.37900
C1444       C  0.00674029  0.33380844  0.29958883     0.37900
C1445       C  0.00667450  0.39268767  0.29693843     0.36300
C1446       C  0.49435436  0.33182472  0.18724803     0.36300
N1447       N  0.00817392  0.40445345  0.31932841    -0.38500
N1448       N  0.49152810  0.31927829  0.16519613    -0.38500
N1449       N  0.00792421  0.32239283  0.32332469    -0.37900
N1450       N  0.48981477  0.40170388  0.16065349    -0.37900
C1451       C  0.50427639  0.10858552  0.25687375    -0.04600
C1452       C  0.99590912  0.12109164  0.22916662    -0.01700
C1453       C  0.99330776  0.14949631  0.22795660     0.03300
C1454       C  0.49900787  0.16571134  0.25430852    -0.04600
C1455       C  0.50712491  0.15332978  0.28203716    -0.01700
C1456       C  0.50982695  0.12492295  0.28336810     0.03300
C1457       C  0.99177355  0.10557370  0.20129280     0.37900
C1458       C  0.51282789  0.16998462  0.30921775     0.37900
C1459       C  0.51837305  0.11268537  0.31210198     0.36300
C1460       C  0.98641551  0.16261931  0.19906485     0.36300
N1461       N  0.52540061  0.10313867  0.33504465    -0.38500
N1462       N  0.98120602  0.17279918  0.17573628    -0.38500
N1463       N  0.51734592  0.18331817  0.33084106    -0.37900
N1464       N  0.98854457  0.09333510  0.17899683    -0.37900
C1465       C  0.49843948  0.25081202  0.34080728    -0.04600
C1466       C  0.52260913  0.26786667  0.35789472    -0.01700
C1467       C  0.52150570  0.26989928  0.38967513     0.03300
C1468       C  0.49688642  0.25372263  0.40560592    -0.04600
C1469       C  0.97230873  0.23762327  0.38842943    -0.01700
C1470       C  0.97321494  0.23583292  0.35657195     0.03300
C1471       C  0.54873364  0.28434968  0.34300981     0.37900
C1472       C  0.94560036  0.22273749  0.40313368     0.37900
C1473       C  0.94800867  0.21760245  0.34049261     0.36300
C1474       C  0.54528932  0.29040986  0.40544783     0.36300
N1475       N  0.92778313  0.20306713  0.32791074    -0.38500
N1476       N  0.56415114  0.30704147  0.41779041    -0.38500
N1477       N  0.92416316  0.21096668  0.41460257    -0.37900
N1478       N  0.56960815  0.29758470  0.33132562    -0.37900
C1479       C  0.50024117  0.24902617  0.09084386    -0.04600
C1480       C  0.52505191  0.26489344  0.10790118    -0.01700
C1481       C  0.52507579  0.26501571  0.14004495     0.03300
C1482       C  0.50019980  0.24951287  0.15606434    -0.04600
C1483       C  0.97536161  0.23373410  0.13889915    -0.01700
C1484       C  0.97573027  0.23280753  0.10690406     0.03300
C1485       C  0.55080812  0.28184245  0.09267352     0.37900
C1486       C  0.94905751  0.21775495  0.15377137     0.37900
C1487       C  0.95096300  0.21378959  0.09090567     0.36300
C1488       C  0.55084313  0.28212109  0.15622185     0.36300
N1489       N  0.93124630  0.19846647  0.07832886    -0.38500
N1490       N  0.57152694  0.29573568  0.16888445    -0.38500
N1491       N  0.92796592  0.20499221  0.16535483    -0.37900
N1492       N  0.57140487  0.29541420  0.08072426    -0.37900
C1493       C  0.50124515  0.33538657  0.49587139    -0.04600
C1494       C  0.50669329  0.35073837  0.02278624    -0.01700
C1495       C  0.50690155  0.38006645  0.02182899     0.03300
C1496       C  0.50146590  0.39413068  0.49396478    -0.04600
C1497       C  0.99615665  0.37855716  0.46692936    -0.01700
C1498       C  0.99607605  0.34931865  0.46795142     0.03300
C1499       C  0.51024818  0.33592824  0.05180489     0.37900
C1500       C  0.99034845  0.39235480  0.43794154     0.37900
C1501       C  0.99000996  0.33332019  0.44030017     0.36300
C1502       C  0.51098377  0.39516954  0.04996855     0.36300
N1503       N  0.98501357  0.32062188  0.41823395    -0.38500
N1504       N  0.51419261  0.40716059  0.07242910    -0.38500
N1505       N  0.98535374  0.40312579  0.41484294    -0.37900
N1506       N  0.51266619  0.32430617  0.07518045    -0.37900
C1507       C  0.00034714  0.10977725  0.00340899    -0.04600
C1508       C  0.50566715  0.12569022  0.03015939    -0.01700
C1509       C  0.50379367  0.15433536  0.02907874     0.03300
C1510       C  0.99598709  0.16712461  0.00147762    -0.04600
C1511       C  0.98931916  0.15096457  0.47520012    -0.01700
C1512       C  0.99182319  0.12250882  0.47602002     0.03300
C1513       C  0.51279469  0.11255980  0.05900956     0.37900
C1514       C  0.98105850  0.16398431  0.44683889     0.37900
C1515       C  0.98717931  0.10707648  0.44806988     0.36300
C1516       C  0.50992116  0.17071305  0.05645818     0.36300
N1517       N  0.98351223  0.09494693  0.42566688    -0.38500
N1518       N  0.51482172  0.18368208  0.07834088    -0.38500
N1519       N  0.97447462  0.17411462  0.42405224    -0.37900
N1520       N  0.51851987  0.10215540  0.08203229    -0.37900
O1521       O  0.97577652  0.28506790  0.99634213    -0.73700
O1522       O  0.97292496  0.20486177  0.49866834    -0.73700
O1523       O  0.97538295  0.24422617  0.54115097    -0.73800
O1524       O  0.97373354  0.24651549  0.95385995    -0.73800
O1525       O  0.52157389  0.25866439  0.95532538    -0.73800
O1526       O  0.52320205  0.25613657  0.54260905    -0.74700
O1527       O  0.52106057  0.21750580  0.50025799    -0.73700
O1528       O  0.52392489  0.29764195  0.99806977    -0.73800
Ni1529     Ni  0.97270263  0.24469014  0.49744158     1.25400
Ni1530     Ni  0.52418520  0.25792889  0.99905595     1.25400
C1531       C  0.50029915  0.30445208  0.99692815     0.88500
C1532       C  0.49657142  0.19804703  0.49999408     0.88400
C1533       C  0.99956093  0.24986573  0.55650955     0.88400
C1534       C  0.99740439  0.25306334  0.93995847     0.88600
O1535       O  0.97504815  0.20277663  0.74963031    -0.73700
O1536       O  0.97652382  0.28290889  0.74447119    -0.73700
O1537       O  0.97623179  0.24341480  0.70368339    -0.73800
O1538       O  0.97535127  0.24296338  0.79056617    -0.73800
O1539       O  0.52319114  0.25588118  0.79365258    -0.73800
O1540       O  0.52404138  0.25590666  0.70644068    -0.73700
O1541       O  0.52468002  0.29609182  0.74734662    -0.73700
O1542       O  0.52318697  0.21621372  0.75305538    -0.73800
Ni1543     Ni  0.97408630  0.24247772  0.74700332     1.25400
Ni1544     Ni  0.52548290  0.25651022  0.75019647     1.25400
C1545       C  0.49895613  0.19640633  0.75222210     0.88500
C1546       C  0.50088029  0.30258732  0.74515378     0.88400
C1547       C  0.50020309  0.24972436  0.69042699     0.88400
C1548       C  0.49906206  0.24966657  0.80668990     0.88600
O1549       O  0.92412368  0.47263123  0.98620287    -0.80200
O1550       O  0.55972012  0.48898354  0.99168364    -0.64900
O1551       O  0.98098798  0.47966192  0.50752215    -1.11500
C1552       C  0.00561177  0.08089800  0.50407206     1.06700
O1553       O  0.58006290  0.03167364  0.51214847    -0.78100
O1554       O  0.53887262  0.03150058  0.55122384    -0.65600
Ni1555     Ni  0.95275041  0.45292626  0.98296544     1.34900
C1556       C  0.51331366  0.02404872  0.56041250     0.85500
O1557       O  0.51599672  0.44369049  0.00736673    -0.78600
O1558       O  0.97626948  0.42789196  0.97803322    -0.88900
C1559       C  0.58172912  0.50898369  0.50103718     0.85000
O1560       O  0.96635798  0.47511344  0.94682574    -0.67100
O1561       O  0.52836447  0.07784037  0.51797460    -0.86400
C1562       C  0.49200614  0.48129272  0.93796709     0.85900
C1563       C  0.49780089  0.42360157  0.99328567     1.07400
H1564       H  0.52571858  0.02998712  0.96961648     0.39200
O1565       O  0.52295026  0.02441442  0.99093155    -1.09000
O1566       O  0.99158771  0.02490236  0.54287347    -0.65700
Ni1567     Ni  0.98368341  0.01995216  0.49959143     1.26300
O1568       O  0.51302698  0.47916625  0.95591356    -0.65900
O1569       O  0.98726437  0.06007905  0.49127860    -0.78200
C1570       C  0.92231295  0.99464544  0.99830751     0.85200
O1571       O  0.94425823  0.01465702  0.50770036    -0.65400
Ni1572     Ni  0.55170897  0.05211431  0.51420708     1.27400
Ni1573     Ni  0.52027737  0.48406423  0.99920977     1.26100
H1574       H  0.97778767  0.47375408  0.52872420     0.39800
O1575       O  0.92542811  0.47289115  0.73451171    -0.80200
O1576       O  0.56042951  0.48668852  0.74004239    -0.64900
O1577       O  0.98201016  0.47778267  0.75619438    -1.11500
C1578       C  0.00865725  0.07918274  0.75703625     1.06700
O1579       O  0.58180115  0.02841934  0.76194907    -0.78100
O1580       O  0.54075839  0.02769979  0.80220589    -0.65600
Ni1581     Ni  0.95331777  0.45222722  0.73072560     1.34900
C1582       C  0.51518239  0.02080386  0.81138507     0.85500
O1583       O  0.51622674  0.44143382  0.75395163    -0.78600
O1584       O  0.97613512  0.42646459  0.72484453    -0.88900
C1585       C  0.58267730  0.50581459  0.74968422     0.85000
O1586       O  0.96730608  0.47513732  0.69527514    -0.67100
O1587       O  0.53121423  0.07537725  0.77070583    -0.86400
C1588       C  0.49295680  0.48180790  0.68645187     0.85900
C1589       C  0.49765997  0.42171713  0.73978462     1.07400
H1590       H  0.52753908  0.02910864  0.72018974     0.39200
O1591       O  0.52472345  0.02271907  0.74135976    -1.09000
O1592       O  0.99354694  0.02161510  0.79371491    -0.65700
Ni1593     Ni  0.98565234  0.01839235  0.75029978     1.26300
O1594       O  0.51398025  0.47909375  0.70407671    -0.65900
O1595       O  0.98989770  0.05882857  0.74397473    -0.78200
C1596       C  0.92419089  0.99438567  0.74862857     0.85200
O1597       O  0.94638983  0.01322342  0.75888976    -0.65400
Ni1598     Ni  0.55388827  0.04920567  0.76553593     1.27400
Ni1599     Ni  0.52108207  0.48201752  0.74767748     1.26100
H1600       H  0.97878607  0.47110704  0.77710800     0.39800
O1601       O  0.71979580  0.02349288  0.00002404    -0.73700
O1602       O  0.79824113  0.02253514  0.00254072    -0.73700
O1603       O  0.75772667  0.02341281  0.95707832    -0.73800
O1604       O  0.75994428  0.02274715  0.54499966    -0.73800
O1605       O  0.74443333  0.47459578  0.54690416    -0.73800
O1606       O  0.74443792  0.47551541  0.95900519    -0.73700
O1607       O  0.78373167  0.47457584  0.50503465    -0.73700
O1608       O  0.70481785  0.47584428  0.50040575    -0.73800
Ni1609     Ni  0.75949026  0.02466280  0.00108907     1.25400
Ni1610     Ni  0.74373028  0.47337040  0.50299571     1.25400
C1611       C  0.69909235  0.00003841  0.49914856     0.88500
C1612       C  0.80411848  0.99831492  0.00402847     0.88400
C1613       C  0.75080794  0.99935863  0.94356898     0.88400
C1614       C  0.75230756  0.99845813  0.56044755     0.88600
O1615       O  0.74670721  0.47609057  0.79751661    -0.73700
O1616       O  0.74586850  0.47588262  0.70978040    -0.73700
O1617       O  0.78572552  0.47623584  0.75560691    -0.73800
O1618       O  0.70665012  0.47575191  0.75108190    -0.73800
O1619       O  0.72052094  0.02357772  0.74788427    -0.73800
O1620       O  0.79985728  0.02388054  0.75443297    -0.73700
O1621       O  0.76082680  0.02381836  0.70721004    -0.73700
O1622       O  0.75957229  0.02396510  0.79488850    -0.73800
Ni1623     Ni  0.74575326  0.47431295  0.75364788     1.25400
Ni1624     Ni  0.76069331  0.02552933  0.75100848     1.25400
C1625       C  0.75306726  0.99981019  0.81062887     0.88500
C1626       C  0.75340069  0.99963607  0.69391581     0.88400
C1627       C  0.80611005  0.99981087  0.75563157     0.88400
C1628       C  0.70042158  0.99936519  0.74844236     0.88600
C1629       C  0.75125040  0.99953284  0.90951608    -0.04600
C1630       C  0.73062793  0.00871098  0.89061449    -0.01700
C1631       C  0.73135368  0.00897656  0.85841719     0.03300
C1632       C  0.75257629  0.99986232  0.84465802    -0.04600
C1633       C  0.77387857  0.49205619  0.86348942    -0.01700
C1634       C  0.77320956  0.49172299  0.89567747     0.03300
C1635       C  0.70774225  0.01657615  0.90423094     0.37900
C1636       C  0.79701274  0.48474414  0.84969409     0.37900
C1637       C  0.79504404  0.48300786  0.91462008     0.36300
C1638       C  0.70973268  0.01794000  0.83935792     0.36300
N1639       N  0.81238763  0.47596936  0.92977412    -0.38500
N1640       N  0.69249145  0.02504020  0.82409137    -0.38500
N1641       N  0.81567216  0.47913530  0.83880743    -0.37900
N1642       N  0.68912173  0.02255098  0.91476054    -0.37900
C1643       C  0.75276970  0.99828390  0.59467302    -0.04600
C1644       C  0.77726553  0.51563934  0.61131369    -0.01700
C1645       C  0.77723570  0.51662289  0.64345015     0.03300
C1646       C  0.75321037  0.99939031  0.65973134    -0.04600
C1647       C  0.72909157  0.98180752  0.64324869    -0.01700
C1648       C  0.72877456  0.98147137  0.61103867     0.03300
C1649       C  0.80296316  0.53141923  0.59539738     0.37900
C1650       C  0.70390256  0.96486906  0.65931254     0.37900
C1651       C  0.70304600  0.96468713  0.59474764     0.36300
C1652       C  0.80237244  0.53463609  0.65963178     0.36300
N1653       N  0.68229091  0.95129966  0.58207033    -0.38500
N1654       N  0.82254399  0.54922638  0.67220185    -0.38500
N1655       N  0.68381734  0.95138363  0.67213523    -0.37900
N1656       N  0.82351969  0.54379306  0.58269848    -0.37900
C1657       C  0.66937271  0.49961163  0.74645642    -0.04600
C1658       C  0.66100886  0.02138188  0.72888608    -0.01700
C1659       C  0.63242686  0.02288481  0.72921344     0.03300
C1660       C  0.61156448  0.50203149  0.74631826    -0.04600
C1661       C  0.61923904  0.47862085  0.76157241    -0.01700
C1662       C  0.64809387  0.47767240  0.76222828     0.03300
C1663       C  0.68132418  0.04216033  0.70965039     0.37900
C1664       C  0.59752278  0.45566329  0.77704562     0.37900
C1665       C  0.65579499  0.45459616  0.78025306     0.36300
C1666       C  0.62396486  0.04557839  0.71125153     0.36300
N1667       N  0.66182382  0.43613246  0.79463875    -0.38500
N1668       N  0.61705772  0.06350652  0.69681807    -0.38500
N1669       N  0.58022980  0.43708529  0.78907346    -0.37900
N1670       N  0.69741927  0.05866709  0.69415764    -0.37900
C1671       C  0.83714088  0.99944391  0.75656128    -0.04600
C1672       C  0.85975337  0.02464337  0.74795945    -0.01700
C1673       C  0.88838650  0.02335294  0.74650584     0.03300
C1674       C  0.89496428  0.99700682  0.75334460    -0.04600
C1675       C  0.87282295  0.47251588  0.76351619    -0.01700
C1676       C  0.84428286  0.47371424  0.76525324     0.03300
C1677       C  0.85400673  0.05205849  0.73966163     0.37900
C1678       C  0.87971791  0.44580214  0.77289893     0.37900
C1679       C  0.82273651  0.44775149  0.77624224     0.36300
C1680       C  0.91089242  0.04910269  0.73687791     0.36300
N1681       N  0.80575252  0.42691252  0.78497626    -0.38500
N1682       N  0.92866906  0.06980334  0.72931213    -0.38500
N1683       N  0.88523951  0.42456024  0.78037338    -0.37900
N1684       N  0.84977844  0.07409300  0.73305429    -0.37900
C1685       C  0.61101357  0.50561189  0.49831026    -0.04600
C1686       C  0.61705155  0.47900751  0.00742690    -0.01700
C1687       C  0.64537199  0.47670580  0.00649548     0.03300
C1688       C  0.66833624  0.00118688  0.49731704    -0.04600
C1689       C  0.66180993  0.02721261  0.48698651    -0.01700
C1690       C  0.63329940  0.02892722  0.48684105     0.03300
C1691       C  0.59435889  0.45459399  0.01941856     0.37900
C1692       C  0.68404357  0.05249574  0.47573569     0.37900
C1693       C  0.62691082  0.05504376  0.47422428     0.36300
C1694       C  0.65023030  0.44899254  0.01536418     0.36300
N1695       N  0.62183305  0.07578861  0.46402404    -0.38500
N1696       N  0.65370648  0.42665079  0.02210692    -0.38500
N1697       N  0.70160747  0.07276430  0.46677003    -0.37900
N1698       N  0.57647541  0.43502092  0.02911205    -0.37900
C1699       C  0.89300038  0.99706650  0.00214272    -0.04600
C1700       C  0.87239173  0.47443074  0.51794825    -0.01700
C1701       C  0.84380445  0.47551667  0.51973034     0.03300
C1702       C  0.83494538  0.99823937  0.00415967    -0.04600
C1703       C  0.85558211  0.02072675  0.98824873    -0.01700
C1704       C  0.88460129  0.02055404  0.98814762     0.03300
C1705       C  0.88068275  0.44985004  0.53202383     0.37900
C1706       C  0.84690682  0.04326827  0.97025363     0.37900
C1707       C  0.90553445  0.04398677  0.97233976     0.36300
C1708       C  0.82389092  0.45320839  0.53792812     0.36300
N1709       N  0.92211188  0.06283872  0.95981847    -0.38500
N1710       N  0.80815957  0.43541676  0.55257639    -0.38500
N1711       N  0.84005300  0.06115720  0.95568876    -0.37900
N1712       N  0.88724705  0.43014331  0.54296802    -0.37900
C1713       C  0.51006810  0.01154122  0.84399277    -0.04600
C1714       C  0.52572272  0.99411430  0.85978796    -0.01700
C1715       C  0.51942811  0.48377465  0.89045196     0.03300
C1716       C  0.49783257  0.49118915  0.90560242    -0.04600
C1717       C  0.98243976  0.50893964  0.88989969    -0.01700
C1718       C  0.98876657  0.01926716  0.85924296     0.03300
C1719       C  0.54719571  0.98522644  0.84454428     0.37900
C1720       C  0.96056562  0.51742935  0.90489605     0.37900
C1721       C  0.97360697  0.03860129  0.84428958     0.36300
C1722       C  0.53551691  0.46543271  0.90573317     0.36300
N1723       N  0.96146978  0.05398764  0.83247680    -0.38500
N1724       N  0.54851712  0.45096988  0.91784070    -0.38500
N1725       N  0.94292390  0.52399518  0.91667134    -0.37900
N1726       N  0.56441601  0.97816070  0.83257895    -0.37900
C1727       C  0.49854253  0.49294087  0.65438904    -0.04600
C1728       C  0.98257906  0.01057476  0.63947512    -0.01700
C1729       C  0.98727742  0.02067656  0.60895351     0.03300
C1730       C  0.50858361  0.01387354  0.59282767    -0.04600
C1731       C  0.52510634  0.49687928  0.60798103    -0.01700
C1732       C  0.52005953  0.48635487  0.63834787     0.03300
C1733       C  0.96170348  0.01933157  0.65592178     0.37900
C1734       C  0.54659911  0.48883164  0.59180069     0.37900
C1735       C  0.53661897  0.46795620  0.65252529     0.36300
C1736       C  0.97021274  0.03843888  0.59447473     0.36300
N1737       N  0.54995337  0.45338817  0.66369855    -0.38500
N1738       N  0.95636448  0.05236738  0.58300498    -0.38500
N1739       N  0.56379731  0.48243578  0.57905305    -0.37900
N1740       N  0.94502087  0.02625677  0.66897120    -0.37900
C1741       C  0.50067483  0.39192636  0.74071928    -0.04600
C1742       C  0.49733578  0.37660714  0.71370091    -0.01700
C1743       C  0.49793541  0.34749307  0.71513987     0.03300
C1744       C  0.50147368  0.33341646  0.74352255    -0.04600
C1745       C  0.00463681  0.34855059  0.77045372    -0.01700
C1746       C  0.00445774  0.37774870  0.76908921     0.03300
C1747       C  0.49314070  0.39062490  0.68435590     0.37900
C1748       C  0.00651754  0.33369535  0.79981784     0.37900
C1749       C  0.00625037  0.39253724  0.79715432     0.36300
C1750       C  0.49453117  0.33182396  0.68744363     0.36300
N1751       N  0.00754371  0.40427550  0.81952663    -0.38500
N1752       N  0.49177789  0.31929850  0.66538577    -0.38500
N1753       N  0.00760723  0.32223405  0.82354601    -0.37900
N1754       N  0.48953525  0.40153926  0.66087339    -0.37900
C1755       C  0.50428334  0.10855226  0.75644585    -0.04600
C1756       C  0.99552792  0.12100382  0.72889275    -0.01700
C1757       C  0.99281652  0.14937013  0.72783205     0.03300
C1758       C  0.49896838  0.16566627  0.75413558    -0.04600
C1759       C  0.50750567  0.15335254  0.78170126    -0.01700
C1760       C  0.51017204  0.12493689  0.78291961     0.03300
C1761       C  0.99114226  0.10550224  0.70099286     0.37900
C1762       C  0.51365325  0.17007835  0.80884185     0.37900
C1763       C  0.51903026  0.11273524  0.81152751     0.36300
C1764       C  0.98529905  0.16237333  0.69912622     0.36300
N1765       N  0.52629621  0.10320338  0.83436324    -0.38500
N1766       N  0.97954162  0.17248524  0.67597237    -0.38500
N1767       N  0.51853254  0.18347291  0.83043004    -0.37900
N1768       N  0.98773005  0.09329991  0.67865866    -0.37900
C1769       C  0.49847659  0.25073802  0.84084061    -0.04600
C1770       C  0.52269869  0.26772004  0.85791154    -0.01700
C1771       C  0.52165414  0.26971980  0.88970106     0.03300
C1772       C  0.49698933  0.25365941  0.90563783    -0.04600
C1773       C  0.97236596  0.23762753  0.88847375    -0.01700
C1774       C  0.97322659  0.23585902  0.85661099     0.03300
C1775       C  0.54881070  0.28419212  0.84299343     0.37900
C1776       C  0.94567274  0.22273235  0.90320438     0.37900
C1777       C  0.94791951  0.21779910  0.84052560     0.36300
C1778       C  0.54560709  0.29001722  0.90548594     0.36300
N1779       N  0.92760559  0.20341609  0.82794027    -0.38500
N1780       N  0.56463227  0.30645642  0.91783151    -0.38500
N1781       N  0.92425563  0.21092986  0.91469597    -0.37900
N1782       N  0.56967146  0.29741922  0.83127995    -0.37900
C1783       C  0.50011863  0.24931510  0.59084062    -0.04600
C1784       C  0.52504948  0.26493773  0.60790395    -0.01700
C1785       C  0.52516645  0.26493395  0.64006740     0.03300
C1786       C  0.50019801  0.24971927  0.65609643    -0.04600
C1787       C  0.97517941  0.23434643  0.63891099    -0.01700
C1788       C  0.97547300  0.23344612  0.60690847     0.03300
C1789       C  0.55081670  0.28183586  0.59266131     0.37900
C1790       C  0.94872788  0.21878174  0.65375623     0.37900
C1791       C  0.95039858  0.21488720  0.59091517     0.36300
C1792       C  0.55116411  0.28156880  0.65625563     0.36300
N1793       N  0.93040669  0.19994591  0.57836567    -0.38500
N1794       N  0.57203834  0.29478962  0.66892398    -0.38500
N1795       N  0.92751607  0.20637015  0.66531820    -0.37900
N1796       N  0.57141961  0.29538605  0.58070839    -0.37900
C1797       C  0.50124596  0.33531465  0.99587378    -0.04600
C1798       C  0.50640411  0.35068002  0.52286308    -0.01700
C1799       C  0.50679937  0.38006236  0.52193060     0.03300
C1800       C  0.50128766  0.39401443  0.99388959    -0.04600
C1801       C  0.99577480  0.37833987  0.96691739    -0.01700
C1802       C  0.99569578  0.34909761  0.96799320     0.03300
C1803       C  0.50944992  0.33567748  0.55190321     0.37900
C1804       C  0.98982449  0.39205648  0.93793334     0.37900
C1805       C  0.98926237  0.33294619  0.94044355     0.36300
C1806       C  0.51080658  0.39511396  0.55009572     0.36300
N1807       N  0.98395796  0.32011196  0.91847044    -0.38500
N1808       N  0.51398100  0.40707251  0.57257427    -0.38500
N1809       N  0.98475350  0.40277426  0.91483193    -0.37900
N1810       N  0.51143492  0.32387063  0.57527335    -0.37900
C1811       C  0.00044165  0.10985987  0.50351079    -0.04600
C1812       C  0.50565959  0.12575366  0.53027576    -0.01700
C1813       C  0.50364938  0.15435560  0.52920775     0.03300
C1814       C  0.99590674  0.16715966  0.50158413    -0.04600
C1815       C  0.98924055  0.15089186  0.97512190    -0.01700
C1816       C  0.99166479  0.12240832  0.97594235     0.03300
C1817       C  0.51286255  0.11267075  0.55912217     0.37900
C1818       C  0.98093272  0.16390394  0.94677838     0.37900
C1819       C  0.98685825  0.10692316  0.94801817     0.36300
C1820       C  0.50953549  0.17066280  0.55663255     0.36300
N1821       N  0.98305389  0.09475940  0.92562952    -0.38500
N1822       N  0.51422005  0.18356423  0.57855908    -0.38500
N1823       N  0.97431783  0.17401646  0.92399577    -0.37900
N1824       N  0.51867600  0.10232343  0.58214193    -0.37900
O1825       O  0.97573574  0.78513004  0.49626981    -0.73700
O1826       O  0.97272222  0.70471967  0.99869116    -0.73700
O1827       O  0.97508290  0.74414143  0.04107228    -0.73800
O1828       O  0.97361168  0.74653975  0.45380569    -0.73800
O1829       O  0.52145833  0.75864352  0.45523157    -0.73800
O1830       O  0.52290300  0.75606064  0.04263551    -0.74700
O1831       O  0.52086072  0.71733996  0.00047253    -0.73700
O1832       O  0.52388368  0.79764701  0.49795677    -0.73800
Ni1833     Ni  0.97253034  0.74456284  0.99735238     1.25400
Ni1834     Ni  0.52408852  0.75791812  0.49896562     1.25400
C1835       C  0.50027424  0.80448613  0.49684218     0.88500
C1836       C  0.49636794  0.69789518  0.00015429     0.88400
C1837       C  0.99923259  0.74977103  0.05648457     0.88400
C1838       C  0.99727470  0.75306989  0.43989046     0.88600
O1839       O  0.97461292  0.70276705  0.24973131    -0.73700
O1840       O  0.97640679  0.78299934  0.24444574    -0.73700
O1841       O  0.97586329  0.74335987  0.20368703    -0.73800
O1842       O  0.97517117  0.74307844  0.29059631    -0.73800
O1843       O  0.52301962  0.75581258  0.29361115    -0.73800
O1844       O  0.52367192  0.75569747  0.20639919    -0.73700
O1845       O  0.52455852  0.79601027  0.24726560    -0.73700
O1846       O  0.52275247  0.71604061  0.25305659    -0.73800
Ni1847     Ni  0.97380953  0.74252185  0.24703105     1.25400
Ni1848     Ni  0.52520689  0.75637319  0.25014794     1.25400
C1849       C  0.49847262  0.69630303  0.25231807     0.88500
C1850       C  0.50081115  0.80260978  0.24509868     0.88400
C1851       C  0.49981974  0.74956705  0.19040935     0.88400
C1852       C  0.49891293  0.74967693  0.30667787     0.88600
O1853       O  0.92395248  0.97255210  0.48590628    -0.80200
O1854       O  0.55953308  0.98893660  0.49177739    -0.64900
O1855       O  0.98098054  0.97959766  0.00705001    -1.11500
C1856       C  0.00587976  0.58097183  0.00415891     1.06700
O1857       O  0.58029337  0.53164782  0.01219697    -0.78100
O1858       O  0.53931645  0.53190089  0.05132262    -0.65600
Ni1859     Ni  0.95259419  0.95283708  0.48280796     1.34900
C1860       C  0.51379402  0.52439197  0.06061053     0.85500
O1861       O  0.51579638  0.94366779  0.50746330    -0.78600
O1862       O  0.97614780  0.92779968  0.47802516    -0.88900
C1863       C  0.58172291  0.00871122  0.00082488     0.85000
O1864       O  0.96627994  0.97496148  0.44666903    -0.67100
O1865       O  0.52880271  0.57804249  0.01776968    -0.86400
C1866       C  0.49195751  0.98117746  0.43788836     0.85900
C1867       C  0.49766452  0.92355876  0.49335219     1.07400
H1868       H  0.52563298  0.53004701  0.46994352     0.39200
O1869       O  0.52288271  0.52449698  0.49126511    -1.09000
O1870       O  0.99194890  0.52492372  0.04310983    -0.65700
Ni1871     Ni  0.98389549  0.51998056  0.99984421     1.26300
O1872       O  0.51293975  0.97906945  0.45590043    -0.65900
O1873       O  0.98741874  0.56008729  0.99159594    -0.78200
C1874       C  0.92226150  0.49462993  0.49879168     0.85200
O1875       O  0.94448651  0.51466896  0.00809281    -0.65400
Ni1876     Ni  0.55203110  0.55220728  0.01413002     1.27400
Ni1877     Ni  0.52007573  0.98402872  0.49919605     1.26100
H1878       H  0.97773527  0.97364461  0.02823503     0.39800
O1879       O  0.92565518  0.97301514  0.23420267    -0.80200
O1880       O  0.56062943  0.98683990  0.24006045    -0.64900
O1881       O  0.98218501  0.97789691  0.25602333    -1.11500
C1882       C  0.00826712  0.57911475  0.25763074     1.06700
O1883       O  0.58162752  0.52865827  0.26234196    -0.78100
O1884       O  0.54039752  0.52746335  0.30264617    -0.65600
Ni1885     Ni  0.95357067  0.95237538  0.23046186     1.34900
C1886       C  0.51479459  0.52052240  0.31176820     0.85500
O1887       O  0.51643336  0.94157804  0.25384953    -0.78600
O1888       O  0.97643096  0.92663788  0.22461473    -0.88900
C1889       C  0.58286713  0.00595965  0.24971619     0.85000
O1890       O  0.96762357  0.97535554  0.19507548    -0.67100
O1891       O  0.53073393  0.57527568  0.27148753    -0.86400
C1892       C  0.49329027  0.98205992  0.18629806     0.85900
C1893       C  0.49790607  0.92186765  0.23963889     1.07400
H1894       H  0.52741036  0.52928620  0.22064102     0.39200
O1895       O  0.52453558  0.52281503  0.24178301    -1.09000
O1896       O  0.99319193  0.52141054  0.29407579    -0.65700
Ni1897     Ni  0.98542010  0.51836811  0.25061340     1.26300
O1898       O  0.51428705  0.97932208  0.20395760    -0.65900
O1899       O  0.98961431  0.55878782  0.24442744    -0.78200
C1900       C  0.92398952  0.49435819  0.24857182     0.85200
O1901       O  0.94612772  0.51308600  0.25910503    -0.65400
Ni1902     Ni  0.55356876  0.54926002  0.26612923     1.27400
Ni1903     Ni  0.52127632  0.98216484  0.24759615     1.26100
H1904       H  0.97891534  0.97117463  0.27691896     0.39800
O1905       O  0.71983340  0.52389438  0.49994951    -0.73700
O1906       O  0.79825897  0.52281619  0.50269794    -0.73700
O1907       O  0.75783230  0.52373317  0.45712137    -0.73800
O1908       O  0.76005273  0.52281405  0.04509794    -0.73800
O1909       O  0.74448110  0.97424706  0.04686950    -0.73800
O1910       O  0.74418864  0.97535439  0.45898718    -0.73700
O1911       O  0.78376971  0.97428775  0.00493374    -0.73700
O1912       O  0.70480298  0.97544339  0.00039796    -0.73800
Ni1913     Ni  0.75951986  0.52500360  0.50112611     1.25400
Ni1914     Ni  0.74374769  0.97302848  0.00294408     1.25400
C1915       C  0.69923287  0.50001657  0.99913146     0.88500
C1916       C  0.80410972  0.49858106  0.50421097     0.88400
C1917       C  0.75085275  0.49966627  0.44363204     0.88400
C1918       C  0.75245848  0.49851324  0.06053151     0.88600
O1919       O  0.74666923  0.97592677  0.29745327    -0.73700
O1920       O  0.74602651  0.97574830  0.20974108    -0.73700
O1921       O  0.78579694  0.97607539  0.25562499    -0.73800
O1922       O  0.70672132  0.97564174  0.25094434    -0.73800
O1923       O  0.72040443  0.52372866  0.24799401    -0.73800
O1924       O  0.79970930  0.52391621  0.25459334    -0.73700
O1925       O  0.76075605  0.52395529  0.20733368    -0.73700
O1926       O  0.75940435  0.52399382  0.29501776    -0.73800
Ni1927     Ni  0.74581950  0.97417155  0.25359392     1.25400
Ni1928     Ni  0.76056669  0.52561750  0.25114043     1.25400
C1929       C  0.75287268  0.49982359  0.31073089     0.88500
C1930       C  0.75334220  0.49978149  0.19402152     0.88400
C1931       C  0.80593506  0.49983460  0.25575965     0.88400
C1932       C  0.70028155  0.49953348  0.24857414     0.88600
C1933       C  0.75124992  0.49979318  0.40959216    -0.04600
C1934       C  0.73046162  0.50872381  0.39071261    -0.01700
C1935       C  0.73108950  0.50885129  0.35851919     0.03300
C1936       C  0.75238637  0.49985811  0.34475362    -0.04600
C1937       C  0.77316473  0.99101924  0.36347994    -0.01700
C1938       C  0.77246094  0.99066331  0.39566202     0.03300
C1939       C  0.70756875  0.51655464  0.40436065     0.37900
C1940       C  0.79585782  0.98291598  0.34972934     0.37900
C1941       C  0.79377129  0.98111430  0.41462760     0.36300
C1942       C  0.70930046  0.51754675  0.33947177     0.36300
N1943       N  0.81068986  0.97341362  0.42980665    -0.38500
N1944       N  0.69192418  0.52442591  0.32420953    -0.38500
N1945       N  0.81417141  0.97667802  0.33887326    -0.37900
N1946       N  0.68896745  0.52252596  0.41493634    -0.37900
C1947       C  0.75291139  0.49832335  0.09477445    -0.04600
C1948       C  0.77750084  0.01517857  0.11125087    -0.01700
C1949       C  0.77752162  0.01622115  0.14338867     0.03300
C1950       C  0.75323177  0.49952904  0.15983538    -0.04600
C1951       C  0.72919774  0.48183658  0.14333757    -0.01700
C1952       C  0.72894768  0.48143327  0.11113829     0.03300
C1953       C  0.80323896  0.03075343  0.09529345     0.37900
C1954       C  0.70402006  0.46482883  0.15937883     0.37900
C1955       C  0.70331624  0.46444782  0.09487079     0.36300
C1956       C  0.80279231  0.03403556  0.15953875     0.36300
N1957       N  0.68262049  0.45086356  0.08226094    -0.38500
N1958       N  0.82310012  0.04846248  0.17204818    -0.38500
N1959       N  0.68395304  0.45128926  0.17219583    -0.37900
N1960       N  0.82382368  0.04296176  0.08255834    -0.37900
C1961       C  0.66947590  0.99954696  0.24632493    -0.04600
C1962       C  0.66082420  0.52151344  0.22904719    -0.01700
C1963       C  0.63224614  0.52303258  0.22944244     0.03300
C1964       C  0.61173765  0.00213337  0.24635914    -0.04600
C1965       C  0.61939130  0.97872016  0.26164026    -0.01700
C1966       C  0.64821616  0.97769121  0.26220842     0.03300
C1967       C  0.68107312  0.54216958  0.20964681     0.37900
C1968       C  0.59767674  0.95581366  0.27717792     0.37900
C1969       C  0.65590763  0.95460534  0.28022642     0.36300
C1970       C  0.62367840  0.54554375  0.21126691     0.36300
N1971       N  0.66193418  0.93613127  0.29459563    -0.38500
N1972       N  0.61667474  0.56330140  0.19663250    -0.38500
N1973       N  0.58038640  0.93726605  0.28924839    -0.37900
N1974       N  0.69711906  0.55857301  0.19402119    -0.37900
C1975       C  0.83695623  0.49943914  0.25665126    -0.04600
C1976       C  0.85959719  0.52466313  0.24817905    -0.01700
C1977       C  0.88822014  0.52335384  0.24669176     0.03300
C1978       C  0.89473684  0.49693649  0.25323744    -0.04600
C1979       C  0.87295657  0.97241317  0.26314272    -0.01700
C1980       C  0.84440710  0.97356330  0.26496281     0.03300
C1981       C  0.85390007  0.55213959  0.24009910     0.37900
C1982       C  0.87986267  0.94565484  0.27228249     0.37900
C1983       C  0.82288572  0.94752318  0.27582511     0.36300
C1984       C  0.91079258  0.54918422  0.23739229     0.36300
N1985       N  0.80592884  0.92661664  0.28445551    -0.38500
N1986       N  0.92862554  0.56995491  0.23011750    -0.38500
N1987       N  0.88538937  0.92437206  0.27954342    -0.37900
N1988       N  0.84970359  0.57421782  0.23366341    -0.37900
C1989       C  0.61099686  0.00528064  0.99817206    -0.04600
C1990       C  0.61684500  0.97896273  0.50715542    -0.01700
C1991       C  0.64518232  0.97669303  0.50625514     0.03300
C1992       C  0.66846767  0.50109886  0.99721723    -0.04600
C1993       C  0.66189467  0.52699876  0.98651698    -0.01700
C1994       C  0.63342067  0.52878677  0.98654816     0.03300
C1995       C  0.59408709  0.95439044  0.51876579     0.37900
C1996       C  0.68403103  0.55200442  0.97458010     0.37900
C1997       C  0.62702060  0.55488807  0.97390800     0.36300
C1998       C  0.65000245  0.94891205  0.51486324     0.36300
N1999       N  0.62193804  0.57563789  0.96373105    -0.38500
N2000       N  0.65346829  0.92653375  0.52142321    -0.38500
N2001       N  0.70151827  0.57202042  0.96500666    -0.37900
N2002       N  0.57614975  0.93468098  0.52813340    -0.37900
C2003       C  0.89294870  0.49708542  0.50256688    -0.04600
C2004       C  0.87258315  0.97450388  0.01779583    -0.01700
C2005       C  0.84397185  0.97550125  0.01962276     0.03300
C2006       C  0.83493520  0.49844846  0.50447474    -0.04600
C2007       C  0.85572479  0.52104842  0.48886918    -0.01700
C2008       C  0.88470704  0.52074887  0.48879037     0.03300
C2009       C  0.88105850  0.95012626  0.03212479     0.37900
C2010       C  0.84727085  0.54388825  0.47118573     0.37900
C2011       C  0.90575806  0.54422252  0.47316724     0.36300
C2012       C  0.82419164  0.95330901  0.03806317     0.36300
N2013       N  0.92242980  0.56309135  0.46077748    -0.38500
N2014       N  0.80856421  0.93561057  0.05290300    -0.38500
N2015       N  0.84061331  0.56203665  0.45688119    -0.37900
N2016       N  0.88778347  0.93058883  0.04328118    -0.37900
C2017       C  0.50963423  0.51117696  0.34434738    -0.04600
C2018       C  0.52512622  0.49354566  0.36003976    -0.01700
C2019       C  0.51962130  0.98390679  0.39047812     0.03300
C2020       C  0.49785421  0.99111725  0.40554328    -0.04600
C2021       C  0.98233357  0.00871326  0.38976958    -0.01700
C2022       C  0.98851879  0.51910730  0.35970076     0.03300
C2023       C  0.54626901  0.48431439  0.34462382     0.37900
C2024       C  0.96035021  0.01708643  0.40470484     0.37900
C2025       C  0.97340308  0.53849316  0.34478522     0.36300
C2026       C  0.53590770  0.96579221  0.40584428     0.36300
N2027       N  0.96127741  0.55390612  0.33300994    -0.38500
N2028       N  0.54907406  0.95151320  0.41800356    -0.38500
N2029       N  0.94263329  0.02356689  0.41643816    -0.37900
N2030       N  0.56321566  0.47695530  0.33251571    -0.37900
C2031       C  0.49888441  0.99321087  0.15423057    -0.04600
C2032       C  0.98302897  0.51107624  0.13964593    -0.01700
C2033       C  0.98784285  0.52123137  0.10915621     0.03300
C2034       C  0.50922008  0.51446841  0.09311145    -0.04600
C2035       C  0.52523136  0.99693068  0.10770414    -0.01700
C2036       C  0.52036511  0.98659762  0.13815585     0.03300
C2037       C  0.96200132  0.51970953  0.15597458     0.37900
C2038       C  0.54655371  0.98870060  0.09142785     0.37900
C2039       C  0.53708003  0.96837539  0.15239164     0.36300
C2040       C  0.97083958  0.53903096  0.09462400     0.36300
N2041       N  0.55054782  0.95395678  0.16361226    -0.38500
N2042       N  0.95705641  0.55300508  0.08311151    -0.38500
N2043       N  0.56359300  0.98214663  0.07857801    -0.37900
N2044       N  0.94518909  0.52652606  0.16892680    -0.37900
C2045       C  0.50091008  0.89206361  0.24060766    -0.04600
C2046       C  0.49760011  0.87673892  0.21359775    -0.01700
C2047       C  0.49809696  0.84758983  0.21505746     0.03300
C2048       C  0.50152224  0.83348162  0.24345268    -0.04600
C2049       C  0.00467950  0.84863101  0.27037567    -0.01700
C2050       C  0.00461688  0.87786827  0.26898997     0.03300
C2051       C  0.49355703  0.89080056  0.18423570     0.37900
C2052       C  0.00637705  0.83374910  0.29975635     0.37900
C2053       C  0.00645973  0.89268347  0.29704705     0.36300
C2054       C  0.49466246  0.83190651  0.18736938     0.36300
N2055       N  0.00780480  0.90443446  0.31942048    -0.38500
N2056       N  0.49187411  0.81936698  0.16531749    -0.38500
N2057       N  0.00729081  0.82228682  0.32351109    -0.37900
N2058       N  0.49008392  0.90176805  0.16074478    -0.37900
C2059       C  0.50385299  0.60847416  0.25692064    -0.04600
C2060       C  0.99536917  0.62092897  0.22922954    -0.01700
C2061       C  0.99263801  0.64929023  0.22802816     0.03300
C2062       C  0.49838633  0.66553665  0.25435600    -0.04600
C2063       C  0.50653171  0.65317876  0.28208431    -0.01700
C2064       C  0.50935723  0.62481786  0.28341003     0.03300
C2065       C  0.99127229  0.60542809  0.20135160     0.37900
C2066       C  0.51209785  0.66980174  0.30928331     0.37900
C2067       C  0.51802291  0.61265552  0.31212902     0.36300
C2068       C  0.98549358  0.66233160  0.19918464     0.36300
N2069       N  0.52515846  0.60318753  0.33506434    -0.38500
N2070       N  0.98004220  0.67247808  0.17592726    -0.38500
N2071       N  0.51648169  0.68310102  0.33092614    -0.37900
N2072       N  0.98808057  0.59322111  0.17903863    -0.37900
C2073       C  0.49837468  0.75070598  0.34082026    -0.04600
C2074       C  0.52246839  0.76796016  0.35783583    -0.01700
C2075       C  0.52138961  0.76997524  0.38961881     0.03300
C2076       C  0.49683745  0.75367120  0.40558005    -0.04600
C2077       C  0.97232574  0.73737806  0.38845895    -0.01700
C2078       C  0.97325142  0.73551416  0.35662418     0.03300
C2079       C  0.54845190  0.78468595  0.34285546     0.37900
C2080       C  0.94567431  0.72235841  0.40319988     0.37900
C2081       C  0.94820387  0.71696353  0.34060494     0.36300
C2082       C  0.54510865  0.79058681  0.40536295     0.36300
N2083       N  0.92811496  0.70216456  0.32806260    -0.38500
N2084       N  0.56392275  0.80729395  0.41768073    -0.38500
N2085       N  0.92428043  0.71048528  0.41470019    -0.37900
N2086       N  0.56920062  0.79812474  0.33108114    -0.37900
C2087       C  0.49974876  0.74917937  0.09081891    -0.04600
C2088       C  0.52468466  0.76475464  0.10790583    -0.01700
C2089       C  0.52476763  0.76478332  0.14005965     0.03300
C2090       C  0.49980876  0.74953157  0.15608026    -0.04600
C2091       C  0.97482608  0.73408453  0.13889570    -0.01700
C2092       C  0.97510600  0.73326620  0.10687419     0.03300
C2093       C  0.55053073  0.78151010  0.09270462     0.37900
C2094       C  0.94845985  0.71831389  0.15377835     0.37900
C2095       C  0.95004835  0.71471754  0.09084837     0.36300
C2096       C  0.55073227  0.78148358  0.15624948     0.36300
N2097       N  0.93007370  0.69977968  0.07826930    -0.38500
N2098       N  0.57158130  0.79476118  0.16891398    -0.38500
N2099       N  0.92731977  0.70572292  0.16537229    -0.37900
N2100       N  0.57120801  0.79491036  0.08078192    -0.37900
C2101       C  0.50125096  0.83534759  0.49584744    -0.04600
C2102       C  0.50613398  0.85055505  0.02251578    -0.01700
C2103       C  0.50643377  0.87990932  0.02155530     0.03300
C2104       C  0.50123293  0.89401370  0.49397221    -0.04600
C2105       C  0.99618734  0.87852556  0.46689813    -0.01700
C2106       C  0.99615736  0.84930225  0.46791211     0.03300
C2107       C  0.50916960  0.83556897  0.05157010     0.37900
C2108       C  0.99062734  0.89240831  0.43787582     0.37900
C2109       C  0.99016447  0.83332856  0.44024544     0.36300
C2110       C  0.51004422  0.89487608  0.04973759     0.36300
N2111       N  0.98519679  0.82064640  0.41816849    -0.38500
N2112       N  0.51287340  0.90675738  0.07223339    -0.38500
N2113       N  0.98585449  0.90324349  0.41473338    -0.37900
N2114       N  0.51119447  0.82376338  0.07493223    -0.37900
C2115       C  0.00063801  0.60988270  0.00365007    -0.04600
C2116       C  0.50606805  0.62585057  0.03036845    -0.01700
C2117       C  0.50387940  0.65438256  0.02933147     0.03300
C2118       C  0.99572808  0.66702313  0.00179764    -0.04600
C2119       C  0.98932085  0.65092190  0.47512005    -0.01700
C2120       C  0.99171141  0.62242342  0.47604635     0.03300
C2121       C  0.51373054  0.61293556  0.05912040     0.37900
C2122       C  0.98135781  0.66398673  0.44664872     0.37900
C2123       C  0.98713189  0.60693670  0.44813527     0.36300
C2124       C  0.51001834  0.67079139  0.05669035     0.36300
N2125       N  0.98350110  0.59475908  0.42576589    -0.38500
N2126       N  0.51491133  0.68377727  0.07856192    -0.38500
N2127       N  0.97502810  0.67413427  0.42375658    -0.37900
N2128       N  0.51992134  0.60271470  0.08205299    -0.37900
O2129       O  0.97559454  0.78504830  0.99605004    -0.73700
O2130       O  0.97285356  0.70484661  0.49859076    -0.73700
O2131       O  0.97540173  0.74417511  0.54112856    -0.73800
O2132       O  0.97359450  0.74632956  0.95376815    -0.73800
O2133       O  0.52143188  0.75837222  0.95536713    -0.73800
O2134       O  0.52322164  0.75605074  0.54252843    -0.74700
O2135       O  0.52098876  0.71743190  0.50013672    -0.73700
O2136       O  0.52374068  0.79753484  0.99786158    -0.73800
Ni2137     Ni  0.97268660  0.74467545  0.49740996     1.25400
Ni2138     Ni  0.52393020  0.75780289  0.99909475     1.25400
C2139       C  0.50014399  0.80439891  0.99660486     0.88500
C2140       C  0.49647881  0.69800193  0.49988094     0.88400
C2141       C  0.99959714  0.74977899  0.55645782     0.88400
C2142       C  0.99729746  0.75280666  0.93993515     0.88600
O2143       O  0.97509672  0.70275307  0.74961160    -0.73700
O2144       O  0.97669615  0.78290007  0.74436762    -0.73700
O2145       O  0.97636447  0.74335468  0.70361839    -0.73800
O2146       O  0.97543985  0.74296484  0.79049691    -0.73800
O2147       O  0.52327586  0.75581170  0.79362977    -0.73800
O2148       O  0.52417528  0.75579335  0.70640759    -0.73700
O2149       O  0.52485086  0.79602369  0.74729578    -0.73700
O2150       O  0.52323665  0.71612298  0.75306143    -0.73800
Ni2151     Ni  0.97419828  0.74246100  0.74693643     1.25400
Ni2152     Ni  0.52559459  0.75642559  0.75017055     1.25400
C2153       C  0.49898388  0.69635070  0.75224353     0.88500
C2154       C  0.50106840  0.80255188  0.74506937     0.88400
C2155       C  0.50034222  0.74960980  0.69038012     0.88400
C2156       C  0.49913602  0.74961330  0.80664678     0.88600
O2157       O  0.92403773  0.97238463  0.98561796    -0.80200
O2158       O  0.55968489  0.98906263  0.99159724    -0.64900
O2159       O  0.98088972  0.97968762  0.50731985    -1.11500
C2160       C  0.00538812  0.58085680  0.50426952     1.06700
O2161       O  0.58008716  0.53194769  0.51244915    -0.78100
O2162       O  0.53886687  0.53172501  0.55148897    -0.65600
Ni2163     Ni  0.95278305  0.95282214  0.98236380     1.34900
C2164       C  0.51330628  0.52415259  0.56067676     0.85500
O2165       O  0.51594874  0.94367489  0.00708100    -0.78600
O2166       O  0.97644862  0.92792094  0.97741132    -0.88900
C2167       C  0.58161547  0.00865752  0.50077396     0.85000
O2168       O  0.96649305  0.97519235  0.94635039    -0.67100
O2169       O  0.52819620  0.57791775  0.51814399    -0.86400
C2170       C  0.49219044  0.98144576  0.93761086     0.85900
C2171       C  0.49787099  0.92360696  0.99286004     1.07400
H2172       H  0.52576041  0.52994665  0.96978106     0.39200
O2173       O  0.52308216  0.52443447  0.99111965    -1.09000
O2174       O  0.99153962  0.52483445  0.54312538    -0.65700
Ni2175     Ni  0.98364018  0.51989147  0.49984919     1.26300
O2176       O  0.51313147  0.97925258  0.95564105    -0.65900
O2177       O  0.98706235  0.55997629  0.49155358    -0.78200
C2178       C  0.92249190  0.49492903  0.99888477     0.85200
O2179       O  0.94419337  0.51444484  0.50798568    -0.65400
Ni2180     Ni  0.55164295  0.55229023  0.51443681     1.27400
Ni2181     Ni  0.52019368  0.98405064  0.99896484     1.26100
H2182       H  0.97767851  0.97382106  0.52852795     0.39800
O2183       O  0.92558707  0.97275675  0.73444603    -0.80200
O2184       O  0.56058915  0.98664544  0.73976864    -0.64900
O2185       O  0.98220296  0.97780151  0.75594914    -1.11500
C2186       C  0.00847469  0.57909764  0.75747799     1.06700
O2187       O  0.58162500  0.52843829  0.76227859    -0.78100
O2188       O  0.54047848  0.52743867  0.80258311    -0.65600
Ni2189     Ni  0.95351358  0.95218201  0.73054160     1.34900
C2190       C  0.51489023  0.52059401  0.81173169     0.85500
O2191       O  0.51638910  0.94142134  0.75377479    -0.78600
O2192       O  0.97637352  0.92648032  0.72457494    -0.88900
C2193       C  0.58284115  0.00575057  0.74943483     0.85000
O2194       O  0.96742233  0.97514211  0.69508752    -0.67100
O2195       O  0.53093326  0.57522258  0.77130307    -0.86400
C2196       C  0.49305776  0.98177305  0.68622023     0.85900
C2197       C  0.49784426  0.92169930  0.73959051     1.07400
H2198       H  0.52740483  0.52916080  0.72055931     0.39200
O2199       O  0.52455354  0.52272031  0.74171299    -1.09000
O2200       O  0.99330127  0.52153778  0.79405264    -0.65700
Ni2201     Ni  0.98547597  0.51837073  0.75061601     1.26300
O2202       O  0.51409207  0.97901605  0.70381068    -0.65900
O2203       O  0.98975211  0.55878803  0.74432698    -0.78200
C2204       C  0.92402494  0.49447476  0.74877309     0.85200
O2205       O  0.94621925  0.51321654  0.75917242    -0.65400
Ni2206     Ni  0.55366140  0.54913257  0.76601146     1.27400
Ni2207     Ni  0.52125319  0.98201136  0.74740907     1.26100
H2208       H  0.97899762  0.97116004  0.77687480     0.39800
O2209       O  0.71982227  0.52374798  0.99985843    -0.73700
O2210       O  0.79837527  0.52300801  0.00283475    -0.73700
O2211       O  0.75802624  0.52386878  0.95715059    -0.73800
O2212       O  0.76014241  0.52287092  0.54507362    -0.73800
O2213       O  0.74432865  0.97446793  0.54679332    -0.73800
O2214       O  0.74407978  0.97505970  0.95903148    -0.73700
O2215       O  0.78377141  0.97458022  0.50500555    -0.73700
O2216       O  0.70479623  0.97568471  0.50021809    -0.73800
Ni2217     Ni  0.75956580  0.52503329  0.00115648     1.25400
Ni2218     Ni  0.74373971  0.97329211  0.50288351     1.25400
C2219       C  0.69916658  0.50022403  0.49932335     0.88500
C2220       C  0.80432014  0.49881825  0.00433416     0.88400
C2221       C  0.75115521  0.49984354  0.94359585     0.88400
C2222       C  0.75249786  0.49859362  0.56054378     0.88600
O2223       O  0.74676332  0.97562744  0.79744459    -0.73700
O2224       O  0.74591487  0.97552036  0.70968194    -0.73700
O2225       O  0.78580423  0.97582586  0.75549159    -0.73800
O2226       O  0.70670549  0.97532859  0.75100871    -0.73800
O2227       O  0.72044844  0.52400315  0.74788148    -0.73800
O2228       O  0.79980430  0.52428954  0.75447790    -0.73700
O2229       O  0.76078314  0.52418064  0.70723234    -0.73700
O2230       O  0.75953818  0.52443168  0.79490373    -0.73800
Ni2231     Ni  0.74581701  0.97389491  0.75356057     1.25400
Ni2232     Ni  0.76063781  0.52594899  0.75102282     1.25400
C2233       C  0.75306380  0.50029000  0.81066741     0.88500
C2234       C  0.75338478  0.49997550  0.69398184     0.88400
C2235       C  0.80604234  0.50020884  0.75575607     0.88400
C2236       C  0.70035614  0.49978219  0.74849914     0.88600
C2237       C  0.75157037  0.50008914  0.90954535    -0.04600
C2238       C  0.73033116  0.50834800  0.89073567    -0.01700
C2239       C  0.73095392  0.50859726  0.85853465     0.03300
C2240       C  0.75268476  0.50037252  0.84468883    -0.04600
C2241       C  0.77314702  0.99062735  0.86355714    -0.01700
C2242       C  0.77234612  0.99023782  0.89573598     0.03300
C2243       C  0.70699642  0.51533878  0.90445307     0.37900
C2244       C  0.79587644  0.98252090  0.84988438     0.37900
C2245       C  0.79352383  0.98053610  0.91475992     0.36300
C2246       C  0.70874991  0.51665460  0.83955912     0.36300
N2247       N  0.81033052  0.97270099  0.92998077    -0.38500
N2248       N  0.69104778  0.52303748  0.82436012    -0.38500
N2249       N  0.81423941  0.97630005  0.83910794    -0.37900
N2250       N  0.68802064  0.52061835  0.91504679    -0.37900
C2251       C  0.75297018  0.49843140  0.59477399    -0.04600
C2252       C  0.77707342  0.01549391  0.61118750    -0.01700
C2253       C  0.77711559  0.01639950  0.64333112     0.03300
C2254       C  0.75327845  0.49966626  0.65981123    -0.04600
C2255       C  0.72921244  0.48202244  0.64331570    -0.01700
C2256       C  0.72896199  0.48162000  0.61112063     0.03300
C2257       C  0.80269778  0.03140852  0.59522025     0.37900
C2258       C  0.70400699  0.46507235  0.65934710     0.37900
C2259       C  0.70329378  0.46472466  0.59482578     0.36300
C2260       C  0.80228519  0.03440444  0.65945476     0.36300
N2261       N  0.68259150  0.45122987  0.58215092    -0.38500
N2262       N  0.82251803  0.04901242  0.67190826    -0.38500
N2263       N  0.68390796  0.45157137  0.67213831    -0.37900
N2264       N  0.82318223  0.04390776  0.58246933    -0.37900
C2265       C  0.66945266  0.99924700  0.74632151    -0.04600
C2266       C  0.66078732  0.52157457  0.72886170    -0.01700
C2267       C  0.63215408  0.52294585  0.72917595     0.03300
C2268       C  0.61171941  0.00190475  0.74615982    -0.04600
C2269       C  0.61925213  0.97834091  0.76125968    -0.01700
C2270       C  0.64806461  0.97724981  0.76189331     0.03300
C2271       C  0.68101072  0.54230716  0.70950144     0.37900
C2272       C  0.59745502  0.95541693  0.77667525     0.37900
C2273       C  0.65559917  0.95393567  0.77964769     0.36300
C2274       C  0.62349592  0.54538283  0.71096109     0.36300
N2275       N  0.66149539  0.93527197  0.79379698    -0.38500
N2276       N  0.61641810  0.56308378  0.69630576    -0.38500
N2277       N  0.58010123  0.93689078  0.78869234    -0.37900
N2278       N  0.69702890  0.55878361  0.69391008    -0.37900
C2279       C  0.83706079  0.49978778  0.75677809    -0.04600
C2280       C  0.85975746  0.52499317  0.74839802    -0.01700
C2281       C  0.88835723  0.52360827  0.74690261     0.03300
C2282       C  0.89480864  0.49715463  0.75345430    -0.04600
C2283       C  0.87305977  0.97237236  0.76357116    -0.01700
C2284       C  0.84446430  0.97345061  0.76517799     0.03300
C2285       C  0.85414317  0.55253100  0.74045332     0.37900
C2286       C  0.88009481  0.94578808  0.77322944     0.37900
C2287       C  0.82295161  0.94742161  0.77607702     0.36300
C2288       C  0.91096082  0.54939071  0.73755919     0.36300
N2289       N  0.80599766  0.92651493  0.78471231    -0.38500
N2290       N  0.92881105  0.57012639  0.73023321    -0.38500
N2291       N  0.88572955  0.92465230  0.78093154    -0.37900
N2292       N  0.85000695  0.57465620  0.73413674    -0.37900
C2293       C  0.61086621  0.00524023  0.49795110    -0.04600
C2294       C  0.61687847  0.97893822  0.00730920    -0.01700
C2295       C  0.64521408  0.97661835  0.00657444     0.03300
C2296       C  0.66843092  0.50142962  0.49752997    -0.04600
C2297       C  0.66194323  0.52746827  0.48718308    -0.01700
C2298       C  0.63347915  0.52929820  0.48723885     0.03300
C2299       C  0.59400907  0.95433973  0.01867649     0.37900
C2300       C  0.68415910  0.55260354  0.47561418     0.37900
C2301       C  0.62719467  0.55556277  0.47493806     0.36300
C2302       C  0.64999527  0.94886781  0.01543232     0.36300
N2303       N  0.62222486  0.57645355  0.46503128    -0.38500
N2304       N  0.65341401  0.92650906  0.02221670    -0.38500
N2305       N  0.70171131  0.57273365  0.46635783    -0.37900
N2306       N  0.57597695  0.93459913  0.02782470    -0.37900
C2307       C  0.89321024  0.49745000  0.00274052    -0.04600
C2308       C  0.87254929  0.97474809  0.51796143    -0.01700
C2309       C  0.84393827  0.97575003  0.51977028     0.03300
C2310       C  0.83517980  0.49877701  0.00466916    -0.04600
C2311       C  0.85594473  0.52136783  0.98902513    -0.01700
C2312       C  0.88493380  0.52107703  0.98891493     0.03300
C2313       C  0.88099139  0.95031914  0.53221293     0.37900
C2314       C  0.84744494  0.54416688  0.97131623     0.37900
C2315       C  0.90594622  0.54450522  0.97319630     0.36300
C2316       C  0.82410857  0.95345848  0.53806243     0.36300
N2317       N  0.92258035  0.56333956  0.96071957    -0.38500
N2318       N  0.80845046  0.93566654  0.55277919    -0.38500
N2319       N  0.84074076  0.56227616  0.95698980    -0.37900
N2320       N  0.88770903  0.93075122  0.54329865    -0.37900
C2321       C  0.50970967  0.51124330  0.84430629    -0.04600
C2322       C  0.52510328  0.49350427  0.85996312    -0.01700
C2323       C  0.52003740  0.98439275  0.89027961     0.03300
C2324       C  0.49816260  0.99147902  0.90529243    -0.04600
C2325       C  0.98260544  0.00902529  0.88948668    -0.01700
C2326       C  0.98859695  0.51918582  0.85965399     0.03300
C2327       C  0.54627022  0.48429690  0.84456215     0.37900
C2328       C  0.96056914  0.01734420  0.90437961     0.37900
C2329       C  0.97363629  0.53873656  0.84480177     0.36300
C2330       C  0.53645459  0.96643424  0.90571062     0.36300
N2331       N  0.96164677  0.55429462  0.83308374    -0.38500
N2332       N  0.54972729  0.95229480  0.91794418    -0.38500
N2333       N  0.94280792  0.02379219  0.91606575    -0.37900
N2334       N  0.56324283  0.47697029  0.83246247    -0.37900
C2335       C  0.49860440  0.99287735  0.65414417    -0.04600
C2336       C  0.98239641  0.51048954  0.63965042    -0.01700
C2337       C  0.98712364  0.52061050  0.60914209     0.03300
C2338       C  0.50860927  0.51402164  0.59310829    -0.04600
C2339       C  0.52491027  0.99652123  0.60760760    -0.01700
C2340       C  0.51994754  0.98608798  0.63801264     0.03300
C2341       C  0.96133745  0.51905775  0.65599903     0.37900
C2342       C  0.54611380  0.98815278  0.59128206     0.37900
C2343       C  0.53643218  0.96760524  0.65215662     0.36300
C2344       C  0.96988617  0.53816498  0.59458183     0.36300
N2345       N  0.54971799  0.95298542  0.66331719    -0.38500
N2346       N  0.95589416  0.55192001  0.58305173    -0.38500
N2347       N  0.56306841  0.98148754  0.57840803    -0.37900
N2348       N  0.94450749  0.52583035  0.66896799    -0.37900
C2349       C  0.50084174  0.89188987  0.74055348    -0.04600
C2350       C  0.49736687  0.87649690  0.71356439    -0.01700
C2351       C  0.49800744  0.84739558  0.71502908     0.03300
C2352       C  0.50169143  0.83338769  0.74340888    -0.04600
C2353       C  0.00497383  0.84857840  0.77031364    -0.01700
C2354       C  0.00476725  0.87777107  0.76892405     0.03300
C2355       C  0.49296858  0.89041169  0.68421969     0.37900
C2356       C  0.00700067  0.83377928  0.79968341     0.37900
C2357       C  0.00666559  0.89260058  0.79697881     0.36300
C2358       C  0.49451577  0.83166967  0.68736013     0.36300
N2359       N  0.00804415  0.90435863  0.81935321    -0.38500
N2360       N  0.49170288  0.81909490  0.66532931    -0.38500
N2361       N  0.00821066  0.82235159  0.82341005    -0.37900
N2362       N  0.48918745  0.90123410  0.66073802    -0.37900
C2363       C  0.50416596  0.60848312  0.75678197    -0.04600
C2364       C  0.99553560  0.62090224  0.72914662    -0.01700
C2365       C  0.99293780  0.64930666  0.72795887     0.03300
C2366       C  0.49894216  0.66561176  0.75424895    -0.04600
C2367       C  0.50727428  0.65330281  0.78191434    -0.01700
C2368       C  0.50997415  0.62490351  0.78322528     0.03300
C2369       C  0.99112094  0.60530431  0.70130477     0.37900
C2370       C  0.51315066  0.67000606  0.80906638     0.37900
C2371       C  0.51881455  0.61277461  0.81188416     0.36300
C2372       C  0.98569692  0.66232853  0.69914698     0.36300
N2373       N  0.52609230  0.60331602  0.83475601    -0.38500
N2374       N  0.98018249  0.67244010  0.67589612    -0.38500
N2375       N  0.51778875  0.68336615  0.83067409    -0.37900
N2376       N  0.98765666  0.59300821  0.67902792    -0.37900
C2377       C  0.49851442  0.75061904  0.84080602    -0.04600
C2378       C  0.52275133  0.76749061  0.85794410    -0.01700
C2379       C  0.52166753  0.76943835  0.88973768     0.03300
C2380       C  0.49695528  0.75340743  0.90561700    -0.04600
C2381       C  0.97232307  0.73748207  0.88839208    -0.01700
C2382       C  0.97321515  0.73578211  0.85652308     0.03300
C2383       C  0.54891944  0.78391153  0.84309498     0.37900
C2384       C  0.94556959  0.72267657  0.90305646     0.37900
C2385       C  0.94786999  0.71786005  0.84037309     0.36300
C2386       C  0.54560856  0.78969791  0.90558010     0.36300
N2387       N  0.92751882  0.70359192  0.82774273    -0.38500
N2388       N  0.56461062  0.80611862  0.91797762    -0.38500
N2389       N  0.92410399  0.71095686  0.91449664    -0.37900
N2390       N  0.56982712  0.79710347  0.83144241    -0.37900
C2391       C  0.50020280  0.74918038  0.59079107    -0.04600
C2392       C  0.52512595  0.76484940  0.60783267    -0.01700
C2393       C  0.52527363  0.76482626  0.64000052     0.03300
C2394       C  0.50034188  0.74954750  0.65605270    -0.04600
C2395       C  0.97535658  0.73405862  0.63889411    -0.01700
C2396       C  0.97562299  0.73318785  0.60688444     0.03300
C2397       C  0.55085484  0.78180044  0.59256088     0.37900
C2398       C  0.94898645  0.71831127  0.65378328     0.37900
C2399       C  0.95061522  0.71451208  0.59090421     0.36300
C2400       C  0.55126576  0.78149105  0.65617177     0.36300
N2401       N  0.93068548  0.69947198  0.57835835    -0.38500
N2402       N  0.57214048  0.79473238  0.66882327    -0.38500
N2403       N  0.92784440  0.70574156  0.66538526    -0.37900
N2404       N  0.57142761  0.79538195  0.58057753    -0.37900
C2405       C  0.50118057  0.83528678  0.99551810    -0.04600
C2406       C  0.50619888  0.85057642  0.52287276    -0.01700
C2407       C  0.50641369  0.87990594  0.52196557     0.03300
C2408       C  0.50137859  0.89402935  0.99352534    -0.04600
C2409       C  0.99640468  0.87853028  0.96646071    -0.01700
C2410       C  0.99628275  0.84927125  0.96752916     0.03300
C2411       C  0.50923099  0.83555393  0.55190519     0.37900
C2412       C  0.99104355  0.89245558  0.93739374     0.37900
C2413       C  0.99047941  0.83332152  0.93985097     0.36300
C2414       C  0.51005016  0.89484982  0.55016590     0.36300
N2415       N  0.98569087  0.82066985  0.91775413    -0.38500
N2416       N  0.51289643  0.90671076  0.57267668    -0.38500
N2417       N  0.98644022  0.90334799  0.91422330    -0.37900
N2418       N  0.51122331  0.82372116  0.57525870    -0.37900
C2419       C  0.00014852  0.60977341  0.50362169    -0.04600
C2420       C  0.50520460  0.62565559  0.53037910    -0.01700
C2421       C  0.50322719  0.65426547  0.52923191     0.03300
C2422       C  0.99575193  0.66710756  0.50151339    -0.04600
C2423       C  0.98894952  0.65074604  0.97547658    -0.01700
C2424       C  0.99168516  0.62238700  0.97624529     0.03300
C2425       C  0.51223620  0.61255915  0.55928797     0.37900
C2426       C  0.98029870  0.66360024  0.94720342     0.37900
C2427       C  0.98701507  0.60695016  0.94829524     0.36300
C2428       C  0.50889333  0.67054740  0.55666763     0.36300
N2429       N  0.98334996  0.59483010  0.92588643    -0.38500
N2430       N  0.51339803  0.68341989  0.57860918    -0.38500
N2431       N  0.97339618  0.67358025  0.92447904    -0.37900
N2432       N  0.51792269  0.60220778  0.58235765    -0.37900
loop_ 
_geom_bond_atom_site_label_1 
_geom_bond_atom_site_label_2 
_geom_bond_distance 
_geom_bond_site_symmetry_2 
_ccdc_geom_bond_type 
O1         Ni313   1.913       .  S
O1         C1227   1.279       .  A
O2           Ni9   1.923       .  S
O2         C1228   1.281       .  A
O3           Ni9   1.921   1_554  S
O3           C13   1.283       .  A
O4         Ni313   1.920       .  S
O4           C14   1.282       .  A
O5          Ni10   1.922       .  S
O5         C1230   1.283   1_455  A
O6         Ni314   1.917   1_554  S
O6         C1229   1.281   1_455  A
O7         Ni314   1.913   1_554  S
O7           C12   1.279   1_454  A
O8          Ni10   1.918       .  S
O8           C11   1.280       .  A
Ni9         O305   1.913       .  S
Ni9         O308   1.919       .  S
Ni9       Ni1530   2.384       .  S
Ni10        O310   1.918       .  S
Ni10        O311   1.913       .  S
Ni10      Ni1529   2.384   1_455  S
C11        O1217   1.279   1_455  A
C11         C277   1.475       .  S
C12        O1218   1.281       .  A
C12        C1510   1.479   1_556  S
C13        O1222   1.281       .  A
C13        C1479   1.509       .  S
C14        O1221   1.283       .  A
C14        C1468   1.509       .  S
O15         Ni23   1.927       .  S
O15        C1241   1.282       .  A
O16         Ni23   1.917       .  S
O16        C1242   1.280       .  A
O17         Ni23   1.915       .  S
O17        C1243   1.281       .  A
O18         Ni23   1.918       .  S
O18        C1244   1.282       .  A
O19         Ni24   1.922       .  S
O19          C28   1.283   1_455  A
O20         Ni24   1.926       .  S
O20          C27   1.284       .  A
O21         Ni24   1.919       .  S
O21          C26   1.280       .  A
O22         Ni24   1.912       .  S
O22          C25   1.279   1_455  A
Ni23      Ni1240   2.382       .  S
Ni24      Ni1239   2.382   1_455  S
C25        O1231   1.282       .  A
C25         C238   1.481       .  S
C26        O1232   1.280   1_455  A
C26         C224   1.478       .  S
C27        O1233   1.281   1_455  A
C27         C266   1.512       .  S
C28        O1234   1.282       .  A
C28         C249   1.511       .  S
O29         Ni35   1.918       .  S
O29         C658   1.269       .  A
O30         Ni53   1.906       .  S
O30         C343   1.268       .  A
O31          H54   0.967       .  S
O31        Ni339   1.919   1_554  S
O31       Ni1573   1.905   1_554  S
O31        Ni655   1.918   1_554  S
C32          O49   1.267   1_554  A
C32        O1257   1.272       .  A
C32         C291   1.490       .  S
O33         Ni52   1.925       .  S
O33         C647   1.272       .  A
O34         Ni52   1.893       .  S
O34          C36   1.270       .  A
Ni35         O38   1.920       .  S
Ni35         O40   1.900       .  S
Ni35        O335   1.918       .  S
C36        O1262   1.277   1_455  A
C36         C210   1.489       .  S
O37         Ni53   1.912       .  S
O37          C43   1.269   1_455  A
O38        C1259   1.268       .  A
C39         O334   1.268   1_554  A
C39         O641   1.272       .  A
C39         C165   1.490   1_554  S
O40        C1258   1.272       .  A
O41         Ni52   1.932       .  S
O41        C1248   1.272       .  A
C42          O48   1.276   1_655  A
C42        O1256   1.272       .  A
C42         C196   1.491       .  S
C43        O1254   1.268       .  A
C43         C280   1.486   1_655  S
H44          O45   0.966       .  S
O45        Ni661   1.925   1_545  S
O45       Ni1567   1.910   1_455  S
O45        Ni356   1.920       .  S
O46         Ni47   1.937   1_554  S
O46        C1252   1.277       .  A
Ni47         O51   1.908   1_556  S
Ni47         O49   1.907       .  S
Ni47        O639   1.918   1_546  S
Ni47       O1565   1.911       .  S
O48         Ni53   1.935       .  S
C50         O637   1.269       .  A
C50         O355   1.268   1_565  A
C50         C179   1.482       .  S
O51         C354   1.268   1_544  A
Ni52        O349   1.920   1_554  S
Ni53       O1551   1.905   1_455  S
Ni53        O653   1.925       .  S
O55         Ni61   1.924       .  S
O55         C684   1.272       .  A
O56         Ni79   1.904       .  S
O56          C65   1.267       .  A
O57          H80   0.963       .  S
O57         Ni61   1.921       .  S
O57       Ni1295   1.904       .  S
O57        Ni681   1.917       .  S
C58          O75   1.267       .  A
C58        O1283   1.272       .  A
C58        C1451   1.492       .  S
O59         Ni78   1.929       .  S
O59         C673   1.272       .  A
O60         Ni78   1.901       .  S
O60          C62   1.272       .  A
Ni61         O64   1.932       .  S
Ni61         O66   1.895       .  S
C62        O1288   1.276   1_455  A
C62         C193   1.490       .  S
O63         Ni79   1.908       .  S
O63          C69   1.269   1_455  A
O64        C1285   1.270       .  A
C65         O667   1.272       .  A
C65         C140   1.484       .  S
O66        C1284   1.270       .  A
O67         Ni78   1.937       .  S
O67        C1274   1.272       .  A
C68          O74   1.276   1_655  A
C68        O1282   1.270       .  A
C68         C207   1.490       .  S
C69        O1280   1.270       .  A
C69         C221   1.487   1_655  S
H70          O71   0.968       .  S
O71         Ni78   1.922       .  S
O71        Ni687   1.925   1_545  S
O71       Ni1289   1.909   1_455  S
O72         Ni73   1.934       .  S
O72        C1278   1.276       .  A
Ni73         O77   1.906       .  S
Ni73         O75   1.905       .  S
Ni73        O665   1.918   1_545  S
Ni73       O1287   1.909       .  S
O74         Ni79   1.937       .  S
C76          O77   1.268   1_565  A
C76         O663   1.272       .  A
C76         C154   1.490       .  S
Ni79       O1273   1.904   1_455  S
Ni79        O679   1.925       .  S
O81         Ni89   1.909       .  S
O81         C395   1.280       .  A
O82         Ni89   1.911       .  S
O82          C92   1.280   1_545  A
O83         Ni89   1.939       .  S
O83          C93   1.285   1_545  A
O84        Ni393   1.931       .  S
O84          C94   1.284   1_545  A
O85         Ni90   1.938       .  S
O85         C702   1.285       .  A
O86        Ni394   1.930       .  S
O86         C701   1.282       .  A
O87         Ni90   1.922       .  S
O87        C1004   1.283       .  A
O88         Ni90   1.923       .  S
O88         C699   1.282   1_554  A
Ni89        O388   1.930       .  S
Ni89      Ni1002   2.380   1_545  S
Ni90        O390   1.931   1_554  S
Ni90      Ni1001   2.380       .  S
C91         O385   1.280   1_566  A
C91         O696   1.283   1_556  A
C91         C168   1.507   1_565  S
C92         O999   1.283       .  A
C92         C182   1.497       .  S
C93         O694   1.283       .  A
C93         C109   1.500       .  S
C94         O693   1.285       .  A
C94         C123   1.506       .  S
O95        Ni103   1.937       .  S
O95         C713   1.284       .  A
O96        Ni103   1.929       .  S
O96         C714   1.283       .  A
O97        Ni103   1.912       .  S
O97         C715   1.281       .  A
O98        Ni103   1.917       .  S
O98         C716   1.281       .  A
O99        Ni104   1.922       .  S
O99         C108   1.283   1_545  A
O100       Ni104   1.922       .  S
O100        C107   1.282       .  A
O101       Ni104   1.937       .  S
O101        C106   1.285   1_545  A
O102       Ni104   1.933       .  S
O102        C105   1.283       .  A
Ni103      Ni712   2.379       .  S
Ni104      Ni711   2.379   1_545  S
C105        O703   1.284   1_545  A
C105        C112   1.500       .  S
C106        O704   1.283       .  A
C106        C126   1.506       .  S
C107        O705   1.280   1_545  A
C107        C151   1.510   1_545  S
C108        O706   1.281       .  A
C108        C745   1.498       .  S
C109        C110   1.415   1_565  A
C109        C722   1.415       .  A
C110        C111   1.420       .  A
C110        C115   1.449       .  S
C111        C112   1.415       .  A
C111        C118   1.451       .  S
C112        C721   1.414   1_545  A
C113        C114   1.419       .  A
C113        C720   1.414       .  A
C113        C116   1.449       .  S
C114        C717   1.415       .  A
C114        C117   1.451       .  S
C115        N122   1.157       .  T
C116        N121   1.157       .  T
C117        N119   1.157       .  T
C118        N120   1.157       .  T
C123        C128   1.416       .  A
C123        C732   1.416   1_565  A
C124        C125   1.420       .  A
C124        C731   1.416       .  A
C124        C129   1.451       .  S
C125        C734   1.417       .  A
C125        C132   1.449       .  S
C126        C127   1.416       .  A
C126        C733   1.417   1_565  A
C127        C128   1.419       .  A
C127        C130   1.452       .  S
C128        C131   1.448       .  S
C129        N136   1.157       .  T
C130        N135   1.157       .  T
C131        N133   1.156       .  T
C132        N134   1.157       .  T
C137        C716   1.499       .  S
C137        C142   1.421       .  A
C137        C746   1.419       .  A
C138        C139   1.412       .  A
C138        C745   1.419   1_545  A
C138        C143   1.451       .  S
C139        C748   1.410       .  A
C139        C146   1.452       .  S
C140        C141   1.410       .  A
C140        C747   1.410       .  A
C141        C142   1.413       .  A
C141        C144   1.451       .  S
C142        C145   1.451       .  S
C143        N150   1.157       .  T
C144        N149   1.157       .  T
C145        N147   1.157       .  T
C146        N148   1.157       .  T
C151        C152   1.426   1_565  A
C151        C764   1.425       .  A
C152        C153   1.415       .  A
C152        C157   1.451       .  S
C153        C154   1.411   1_545  A
C153        C160   1.452       .  S
C154        C763   1.412       .  A
C155        C156   1.411       .  A
C155        C762   1.411       .  A
C155        C158   1.454       .  S
C156        C759   1.425       .  A
C156        C159   1.453       .  S
C157        N164   1.158       .  T
C158        N163   1.157       .  T
C159        N161   1.158       .  T
C160        N162   1.157       .  T
C165        C470   1.412   1_556  A
C165        C778   1.412       .  A
C166        C167   1.415       .  A
C166        C469   1.412       .  A
C166        C171   1.452       .  S
C167       C1080   1.424       .  A
C167        C174   1.451       .  S
C168        C169   1.424       .  A
C168       C1079   1.424   1_546  A
C169        C170   1.410       .  A
C169        C172   1.453       .  S
C170        C773   1.412       .  A
C170        C173   1.454       .  S
C171        N178   1.157       .  T
C172        N177   1.158       .  T
C173        N175   1.157       .  T
C174        N176   1.158       .  T
C179        C184   1.408   1_565  A
C179       C1092   1.412       .  A
C180        C181   1.411       .  A
C180       C1091   1.413       .  A
C180        C185   1.453       .  S
C181       C1094   1.418       .  A
C181        C188   1.452       .  S
C182        C183   1.422   1_565  A
C182       C1093   1.418       .  A
C183        C184   1.411       .  A
C183        C186   1.452       .  S
C184        C187   1.451       .  S
C185        N192   1.157       .  T
C186        N191   1.157       .  T
C187        N189   1.157       .  T
C188        N190   1.157       .  T
C193        C194   1.416   1_545  A
C193       C1414   1.416   1_455  A
C194        C803   1.410       .  A
C194        C199   1.452       .  S
C195        C196   1.418   1_455  A
C195        C802   1.410       .  A
C195        C202   1.454       .  S
C196       C1413   1.417       .  A
C197       C1412   1.417       .  A
C197        C806   1.409       .  A
C197        C200   1.453       .  S
C198       C1409   1.416       .  A
C198        C805   1.409       .  A
C198        C201   1.453       .  S
C199        N206   1.157       .  T
C200        N205   1.157       .  T
C201        N203   1.158       .  T
C202        N204   1.158       .  T
C207        C212   1.417   1_655  A
C207       C2032   1.418       .  A
C208        C209   1.409       .  A
C208       C2031   1.418   1_545  A
C208        C213   1.454       .  S
C209       C1426   1.415       .  A
C209        C216   1.453       .  S
C210       C1425   1.415   1_455  A
C210        C819   1.418   1_545  A
C211        C212   1.409       .  A
C211        C818   1.418       .  A
C211        C214   1.454       .  S
C212        C215   1.453       .  S
C213        N220   1.158       .  T
C214        N219   1.158       .  T
C215        N217   1.158       .  T
C216        N218   1.158       .  T
C221        C222   1.418   1_455  A
C221       C1442   1.414       .  A
C222        C223   1.412       .  A
C222        C227   1.451       .  S
C223        C224   1.409   1_655  A
C223        C230   1.452       .  S
C224       C1441   1.410       .  A
C225        C226   1.410       .  A
C225       C1440   1.410       .  A
C225        C228   1.449       .  S
C226       C1437   1.414       .  A
C226        C229   1.452       .  S
C227        N234   1.157       .  T
C228        N233   1.156       .  T
C229        N231   1.157       .  T
C230        N232   1.157       .  T
C235       C1274   1.492       .  S
C235        C240   1.418       .  A
C235       C1452   1.417   1_455  A
C236        C237   1.411       .  A
C236       C1451   1.417       .  A
C236        C241   1.452       .  S
C237       C1454   1.409       .  A
C237        C244   1.449       .  S
C238        C239   1.410   1_655  A
C238       C1453   1.409       .  A
C239        C240   1.413       .  A
C239        C242   1.452       .  S
C240        C243   1.451       .  S
C241        N248   1.157       .  T
C242        N247   1.157       .  T
C243        N245   1.157       .  T
C244        N246   1.156       .  T
C249        C250   1.422   1_655  A
C249       C1470   1.422       .  A
C250        C251   1.415       .  A
C250        C255   1.453       .  S
C251        C252   1.419   1_455  A
C251        C258   1.453       .  S
C252       C1230   1.509       .  S
C252       C1469   1.420       .  A
C253        C254   1.416       .  A
C253       C1468   1.420       .  A
C253        C256   1.453       .  S
C254       C1465   1.422       .  A
C254        C257   1.453       .  S
C255        N262   1.158       .  T
C256        N261   1.158       .  T
C257        N259   1.158       .  T
C258        N260   1.158       .  T
C263       C1229   1.509   1_455  S
C263        C264   1.421       .  A
C263       C1484   1.419   1_455  A
C264        C265   1.416       .  A
C264        C269   1.453       .  S
C265        C266   1.421       .  A
C265        C272   1.453       .  S
C266       C1483   1.423   1_455  A
C267        C268   1.414       .  A
C267       C1482   1.423       .  A
C267        C270   1.453       .  S
C268       C1479   1.419       .  A
C268        C271   1.454       .  S
C269        N276   1.158       .  T
C270        N275   1.158       .  T
C271        N273   1.158       .  T
C272        N274   1.158       .  T
C277        C582   1.410       .  A
C277       C1498   1.408   1_455  A
C278        C279   1.411       .  A
C278        C581   1.410   1_554  A
C278        C283   1.450       .  S
C279        C584   1.415   1_554  A
C279        C286   1.452       .  S
C280        C583   1.415       .  A
C280       C1497   1.419   1_455  A
C281        C282   1.408       .  A
C281       C1496   1.419       .  A
C281        C284   1.452       .  S
C282       C1493   1.408       .  A
C282        C285   1.453       .  S
C283        N290   1.157       .  T
C284        N289   1.157       .  T
C285        N287   1.157       .  T
C286        N288   1.158       .  T
C291       C1508   1.417       .  A
C291        C600   1.416   1_554  A
C292        C293   1.410       .  A
C292       C1507   1.417       .  A
C292        C297   1.452       .  S
C293       C1510   1.409   1_455  A
C293        C300   1.452       .  S
C294       C1228   1.479   1_554  S
C294       C1509   1.409       .  A
C294        C599   1.410   1_554  A
C295        C296   1.413       .  A
C295        C598   1.410       .  A
C295        C298   1.450       .  S
C296        C595   1.416       .  A
C296        C299   1.451       .  S
C297        N304   1.157       .  T
C298        N303   1.157       .  T
C299        N301   1.158       .  T
C300        N302   1.157       .  T
O305       C1531   1.279       .  A
O306       Ni313   1.924       .  S
O306       C1532   1.281       .  A
O307       Ni313   1.921       .  S
O307        C317   1.283       .  A
O308        C318   1.282       .  A
O309       Ni314   1.921       .  S
O309       C1534   1.283   1_455  A
O310       C1533   1.281   1_455  A
O311        C316   1.279   1_455  A
O312       Ni314   1.919       .  S
O312        C315   1.280       .  A
Ni313     Ni1226   2.384       .  S
Ni314     Ni1225   2.384   1_455  S
C315       O1521   1.279   1_455  A
C315        C581   1.475       .  S
C316       O1522   1.281       .  A
C316       C1814   1.479       .  S
C317       O1526   1.281       .  A
C317       C1783   1.509       .  S
C318       O1525   1.283       .  A
C318       C1772   1.509       .  S
O319       Ni327   1.927       .  S
O319       C1545   1.282       .  A
O320       Ni327   1.917       .  S
O320       C1546   1.280       .  A
O321       Ni327   1.914       .  S
O321       C1547   1.280       .  A
O322       Ni327   1.917       .  S
O322       C1548   1.282       .  A
O323       Ni328   1.922       .  S
O323        C332   1.283   1_455  A
O324       Ni328   1.926       .  S
O324        C331   1.284       .  A
O325       Ni328   1.919       .  S
O325        C330   1.280       .  A
O326       Ni328   1.912       .  S
O326        C329   1.279   1_455  A
Ni327     Ni1544   2.382       .  S
Ni328     Ni1543   2.382   1_455  S
C329       O1535   1.282       .  A
C329        C542   1.481       .  S
C330       O1536   1.280   1_455  A
C330        C528   1.477       .  S
C331       O1537   1.280   1_455  A
C331        C570   1.512       .  S
C332       O1538   1.282       .  A
C332        C553   1.511       .  S
O333       Ni339   1.918       .  S
O333        C962   1.269       .  A
O334       Ni357   1.906       .  S
O335        H358   0.967       .  S
O335      Ni1269   1.905       .  S
O335       Ni959   1.918       .  S
C336        O353   1.267       .  A
C336       O1561   1.272       .  A
C336        C595   1.490       .  S
O337       Ni356   1.925       .  S
O337        C951   1.272       .  A
O338       Ni356   1.894       .  S
O338        C340   1.270       .  A
Ni339       O342   1.921       .  S
Ni339       O344   1.900       .  S
C340       O1566   1.277   1_455  A
C340        C514   1.489       .  S
O341       Ni357   1.911   1_554  S
O341        C347   1.269   1_454  A
O342       C1563   1.269       .  A
C343        O945   1.272       .  A
C343        C469   1.490       .  S
O344       C1562   1.272       .  A
O345       Ni356   1.932       .  S
O345       C1552   1.272       .  A
C346       O1560   1.272       .  A
C346        O352   1.276   1_655  A
C346        C500   1.491       .  S
C347       O1558   1.269       .  A
C347        C584   1.486   1_655  S
H348        O349   0.966       .  S
O349       Ni965   1.925   1_545  S
O349      Ni1263   1.911   1_455  S
O350       Ni351   1.937       .  S
O350       C1556   1.277       .  A
Ni351       O355   1.908       .  S
Ni351       O353   1.907       .  S
Ni351       O943   1.918   1_545  S
Ni351      O1261   1.910       .  S
O352       Ni357   1.935       .  S
C354        O941   1.269       .  A
C354        C483   1.482   1_556  S
Ni357      O1247   1.905   1_456  S
Ni357       O957   1.925       .  S
O359       Ni365   1.924       .  S
O359        C988   1.272       .  A
O360       Ni383   1.905       .  S
O360        C369   1.267       .  A
O361        H384   0.963       .  S
O361       Ni365   1.922       .  S
O361      Ni1599   1.905       .  S
O361       Ni985   1.918       .  S
C362        O379   1.267       .  A
C362       O1587   1.272       .  A
C362       C1755   1.493       .  S
O363       Ni382   1.928       .  S
O363        C977   1.272       .  A
O364       Ni382   1.901       .  S
O364        C366   1.271       .  A
Ni365       O368   1.931       .  S
Ni365       O370   1.894       .  S
C366       O1592   1.276   1_455  A
C366        C497   1.490       .  S
O367       Ni383   1.907       .  S
O367        C373   1.268   1_455  A
O368       C1589   1.270       .  A
C369        O971   1.272       .  A
C369        C444   1.484       .  S
O370       C1588   1.270       .  A
O371       Ni382   1.936       .  S
O371       C1578   1.272       .  A
C372       O1586   1.270       .  A
C372        O378   1.276   1_655  A
C372        C511   1.490       .  S
C373       O1584   1.270       .  A
C373        C525   1.486   1_655  S
H374        O375   0.968       .  S
O375       Ni991   1.925   1_545  S
O375      Ni1593   1.909   1_455  S
O375       Ni382   1.922       .  S
O376       Ni377   1.934       .  S
O376       C1582   1.276       .  A
Ni377       O381   1.906       .  S
Ni377       O379   1.906       .  S
Ni377       O969   1.918   1_545  S
Ni377      O1591   1.909       .  S
O378       Ni383   1.937       .  S
C380        O967   1.272       .  A
C380        O381   1.268   1_565  A
C380        C458   1.489       .  S
Ni383      O1577   1.905   1_455  S
Ni383       O983   1.924       .  S
O385       Ni393   1.909       .  S
O386       Ni393   1.911       .  S
O386        C396   1.280   1_545  A
O387       Ni393   1.939   1_556  S
O387        C397   1.285   1_545  A
O388        C398   1.284   1_545  A
O389       Ni394   1.937       .  S
O389       C1006   1.285       .  A
O390       C1005   1.283       .  A
O391       Ni394   1.922       .  S
O391        C700   1.283       .  A
O392       Ni394   1.923       .  S
O392       C1003   1.282       .  A
Ni393      Ni698   2.380   1_545  S
Ni394      Ni697   2.380       .  S
C395       O1000   1.282   1_545  A
C395        C472   1.507       .  S
C396        O695   1.283       .  A
C396        C486   1.497       .  S
C397        O998   1.283       .  A
C397        C413   1.501       .  S
C398        O997   1.285       .  A
C398        C427   1.506       .  S
O399       Ni407   1.937       .  S
O399       C1017   1.284       .  A
O400       Ni407   1.929       .  S
O400       C1018   1.283       .  A
O401       Ni407   1.912       .  S
O401       C1019   1.280       .  A
O402       Ni407   1.916       .  S
O402       C1020   1.281       .  A
O403       Ni408   1.921       .  S
O403        C412   1.283   1_545  A
O404       Ni408   1.922       .  S
O404        C411   1.282   1_545  A
O405       Ni408   1.937       .  S
O405        C410   1.285   1_545  A
O406       Ni408   1.933       .  S
O406        C409   1.283   1_545  A
Ni407     Ni1016   2.380       .  S
Ni408     Ni1015   2.379   1_545  S
C409       O1007   1.284       .  A
C409        C416   1.501       .  S
C410       O1008   1.283       .  A
C410        C430   1.506       .  S
C411       O1009   1.281       .  A
C411        C455   1.509       .  S
C412       O1010   1.281       .  A
C412       C1049   1.499       .  S
C413        C414   1.415   1_565  A
C413       C1026   1.415       .  A
C414        C415   1.420       .  A
C414        C419   1.449       .  S
C415        C416   1.415   1_545  A
C415        C422   1.451       .  S
C416       C1025   1.414       .  A
C417       C1024   1.414       .  A
C417        C418   1.419       .  A
C417        C420   1.449       .  S
C418       C1021   1.415       .  A
C418        C421   1.451       .  S
C419        N426   1.157       .  T
C420        N425   1.157       .  T
C421        N423   1.157       .  T
C422        N424   1.157       .  T
C427       C1036   1.416   1_565  A
C427        C432   1.416       .  A
C428       C1035   1.416       .  A
C428        C429   1.419       .  A
C428        C433   1.451       .  S
C429       C1038   1.417       .  A
C429        C436   1.449       .  S
C430       C1037   1.417   1_565  A
C430        C431   1.417       .  A
C431        C432   1.419       .  A
C431        C434   1.452       .  S
C432        C435   1.449       .  S
C433        N440   1.157       .  T
C434        N439   1.157       .  T
C435        N437   1.156       .  T
C436        N438   1.157       .  T
C441       C1020   1.499       .  S
C441       C1050   1.419       .  A
C441        C446   1.421       .  A
C442       C1049   1.419   1_545  A
C442        C443   1.411       .  A
C442        C447   1.451       .  S
C443       C1052   1.410       .  A
C443        C450   1.452       .  S
C444       C1051   1.410       .  A
C444        C445   1.410       .  A
C445        C446   1.413       .  A
C445        C448   1.451       .  S
C446        C449   1.451       .  S
C447        N454   1.157       .  T
C448        N453   1.157       .  T
C449        N451   1.157       .  T
C450        N452   1.157       .  T
C455        C456   1.426   1_565  A
C455       C1068   1.425       .  A
C456        C457   1.415       .  A
C456        C461   1.451       .  S
C457        C458   1.410   1_545  A
C457        C464   1.452       .  S
C458       C1067   1.412       .  A
C459       C1066   1.411       .  A
C459        C460   1.410       .  A
C459        C462   1.454       .  S
C460       C1063   1.425       .  A
C460        C463   1.453       .  S
C461        N468   1.158       .  T
C462        N467   1.157       .  T
C463        N465   1.158       .  T
C464        N466   1.157       .  T
C469       C1082   1.412       .  A
C470        C471   1.415       .  A
C470        C475   1.452       .  S
C471        C776   1.424   1_554  A
C471        C478   1.451       .  S
C472        C775   1.424   1_545  A
C472        C473   1.425       .  A
C473        C474   1.410       .  A
C473        C476   1.453       .  S
C474       C1077   1.412       .  A
C474        C477   1.454       .  S
C475        N482   1.157       .  T
C476        N481   1.158       .  T
C477        N479   1.157       .  T
C478        N480   1.158       .  T
C483        C788   1.412       .  A
C483        C488   1.408   1_564  A
C484        C787   1.413       .  A
C484        C485   1.411       .  A
C484        C489   1.453       .  S
C485        C790   1.418       .  A
C485        C492   1.452       .  S
C486        C789   1.418       .  A
C486        C487   1.421   1_564  A
C487        C488   1.411       .  A
C487        C490   1.452       .  S
C488        C491   1.451       .  S
C489        N496   1.157       .  T
C490        N495   1.157       .  T
C491        N493   1.157       .  T
C492        N494   1.157       .  T
C497        C498   1.416   1_545  A
C497       C1718   1.416   1_455  A
C498       C1107   1.410       .  A
C498        C503   1.452       .  S
C499       C1106   1.410       .  A
C499        C500   1.418   1_455  A
C499        C506   1.454       .  S
C500       C1717   1.417       .  A
C501       C1716   1.417       .  A
C501       C1110   1.409       .  A
C501        C504   1.453       .  S
C502       C1713   1.416       .  A
C502       C1109   1.409       .  A
C502        C505   1.453       .  S
C503        N510   1.157       .  T
C504        N509   1.157       .  T
C505        N507   1.158       .  T
C506        N508   1.158       .  T
C511       C2336   1.418       .  A
C511        C516   1.417   1_655  A
C512       C2335   1.418   1_545  A
C512        C513   1.409       .  A
C512        C517   1.454       .  S
C513       C1730   1.415       .  A
C513        C520   1.453       .  S
C514       C1729   1.415   1_455  A
C514       C1123   1.418   1_545  A
C515       C1122   1.418       .  A
C515        C516   1.409       .  A
C515        C518   1.454       .  S
C516        C519   1.453       .  S
C517        N524   1.158       .  T
C518        N523   1.158       .  T
C519        N521   1.158       .  T
C520        N522   1.158       .  T
C525        C526   1.417   1_455  A
C525       C1746   1.414       .  A
C526        C527   1.412       .  A
C526        C531   1.451       .  S
C527        C528   1.409   1_655  A
C527        C534   1.452       .  S
C528       C1745   1.410       .  A
C529       C1744   1.410       .  A
C529        C530   1.410       .  A
C529        C532   1.449       .  S
C530       C1741   1.414       .  A
C530        C533   1.452       .  S
C531        N538   1.157       .  T
C532        N537   1.156       .  T
C533        N535   1.157       .  T
C534        N536   1.157       .  T
C539       C1578   1.493       .  S
C539       C1756   1.417   1_455  A
C539        C544   1.418       .  A
C540       C1755   1.417       .  A
C540        C541   1.412       .  A
C540        C545   1.452       .  S
C541       C1758   1.410       .  A
C541        C548   1.450       .  S
C542       C1757   1.410       .  A
C542        C543   1.410   1_655  A
C543        C544   1.413       .  A
C543        C546   1.452       .  S
C544        C547   1.451       .  S
C545        N552   1.157       .  T
C546        N551   1.157       .  T
C547        N549   1.157       .  T
C548        N550   1.156       .  T
C553        C554   1.422   1_655  A
C553       C1774   1.422       .  A
C554        C555   1.415       .  A
C554        C559   1.453       .  S
C555        C556   1.419   1_455  A
C555        C562   1.453       .  S
C556       C1534   1.509       .  S
C556       C1773   1.420       .  A
C557       C1772   1.420       .  A
C557        C558   1.415       .  A
C557        C560   1.453       .  S
C558       C1769   1.422       .  A
C558        C561   1.453       .  S
C559        N566   1.158       .  T
C560        N565   1.158       .  T
C561        N563   1.158       .  T
C562        N564   1.158       .  T
C567       C1533   1.509   1_455  S
C567        C568   1.421       .  A
C567       C1788   1.419   1_455  A
C568        C569   1.416       .  A
C568        C573   1.453       .  S
C569        C570   1.422       .  A
C569        C576   1.453       .  S
C570       C1787   1.423   1_455  A
C571       C1786   1.423       .  A
C571        C572   1.414       .  A
C571        C574   1.453       .  S
C572       C1783   1.419       .  A
C572        C575   1.454       .  S
C573        N580   1.158       .  T
C574        N579   1.158       .  T
C575        N577   1.158       .  T
C576        N578   1.158       .  T
C581       C1802   1.408   1_455  A
C582        C583   1.411       .  A
C582        C587   1.450       .  S
C583        C590   1.452       .  S
C584       C1801   1.419   1_455  A
C585       C1800   1.419       .  A
C585        C586   1.409       .  A
C585        C588   1.452       .  S
C586       C1797   1.408       .  A
C586        C589   1.453       .  S
C587        N594   1.157       .  T
C588        N593   1.157       .  T
C589        N591   1.157       .  T
C590        N592   1.158       .  T
C595       C1812   1.417       .  A
C596       C1811   1.417       .  A
C596        C597   1.410       .  A
C596        C601   1.452       .  S
C597       C1814   1.410   1_455  A
C597        C604   1.452       .  S
C598       C1532   1.479       .  S
C598       C1813   1.410       .  A
C599        C600   1.412       .  A
C599        C602   1.450       .  S
C600        C603   1.451       .  S
C601        N608   1.157       .  T
C602        N607   1.157       .  T
C603        N605   1.158       .  T
C604        N606   1.157       .  T
O609       Ni921   1.912       .  S
O609       C1835   1.279       .  A
O610       Ni617   1.924       .  S
O610       C1836   1.281   1_556  A
O611       Ni617   1.921   1_554  S
O611        C621   1.283       .  A
O612       Ni921   1.920       .  S
O612        C622   1.282       .  A
O613       Ni618   1.921       .  S
O613       C1838   1.283   1_455  A
O614       Ni922   1.917   1_554  S
O614       C1837   1.281   1_455  A
O615       Ni922   1.912   1_554  S
O615        C620   1.279   1_455  A
O616       Ni618   1.919       .  S
O616        C619   1.280       .  A
Ni617       O913   1.914       .  S
Ni617       O916   1.919       .  S
Ni617     Ni2138   2.383       .  S
Ni618       O918   1.917       .  S
Ni618       O919   1.913       .  S
Ni618     Ni2137   2.384   1_455  S
C619       O1825   1.279   1_455  A
C619        C885   1.475       .  S
C620       O1826   1.281   1_554  A
C620       C2118   1.479       .  S
C621       O1830   1.281       .  A
C621       C2087   1.509       .  S
C622       O1829   1.283       .  A
C622       C2076   1.509       .  S
O623       Ni631   1.927       .  S
O623       C1849   1.282       .  A
O624       Ni631   1.917       .  S
O624       C1850   1.280       .  A
O625       Ni631   1.915       .  S
O625       C1851   1.281       .  A
O626       Ni631   1.918       .  S
O626       C1852   1.282       .  A
O627       Ni632   1.922       .  S
O627        C636   1.283   1_455  A
O628       Ni632   1.926       .  S
O628        C635   1.284   1_455  A
O629       Ni632   1.919       .  S
O629        C634   1.280       .  A
O630       Ni632   1.912       .  S
O630        C633   1.279   1_455  A
Ni631     Ni1848   2.382       .  S
Ni632     Ni1847   2.382   1_455  S
C633       O1839   1.282       .  A
C633        C846   1.481       .  S
C634       O1840   1.280   1_455  A
C634        C832   1.478       .  S
C635       O1841   1.281       .  A
C635        C874   1.512       .  S
C636       O1842   1.282       .  A
C636        C857   1.510       .  S
O637       Ni643   1.918       .  S
O638       Ni661   1.905       .  S
O638        C951   1.268   1_565  A
O639        H662   0.967       .  S
O639       Ni947   1.919   1_554  S
O639      Ni2181   1.905   1_554  S
C640        O657   1.266   1_554  A
C640       O1865   1.271       .  A
C640        C899   1.489       .  S
O641       Ni660   1.924       .  S
O642       Ni660   1.894       .  S
O642        C644   1.270       .  A
Ni643       O646   1.921       .  S
Ni643       O648   1.900       .  S
Ni643       O943   1.918       .  S
C644       O1870   1.277   1_455  A
C644        C818   1.489       .  S
O645       Ni661   1.911       .  S
O645        C651   1.269   1_455  A
O646       C1867   1.269       .  A
C647        O942   1.268   1_544  A
C647        C773   1.491   1_554  S
O648       C1866   1.272       .  A
O649       Ni660   1.931       .  S
O649       C1856   1.271       .  A
C650       O1864   1.272       .  A
C650        O656   1.276   1_655  A
C650        C804   1.491       .  S
C651       O1862   1.269       .  A
C651        C888   1.485   1_655  S
H652        O653   0.966       .  S
O653      Ni2175   1.910   1_455  S
O653       Ni964   1.920       .  S
O654       Ni655   1.937   1_554  S
O654       C1860   1.277       .  A
Ni655       O659   1.908   1_556  S
Ni655       O657   1.906       .  S
Ni655      O2173   1.911       .  S
O656       Ni661   1.934       .  S
C658        O963   1.268       .  A
C658        C787   1.482       .  S
O659        C962   1.268   1_554  A
Ni660       O957   1.920   1_554  S
Ni661      O2159   1.905   1_455  S
O663       Ni669   1.924       .  S
O664       Ni687   1.904       .  S
O664        C673   1.267   1_565  A
O665        H688   0.963       .  S
O665       Ni669   1.921       .  S
O665      Ni1903   1.905       .  S
C666        O683   1.267       .  A
C666       O1891   1.272       .  A
C666       C2059   1.493       .  S
O667       Ni686   1.929       .  S
O668       Ni686   1.901       .  S
O668        C670   1.272       .  A
Ni669       O672   1.932       .  S
Ni669       O674   1.894       .  S
C670       O1896   1.277   1_455  A
C670        C801   1.490       .  S
O671       Ni687   1.907       .  S
O671        C677   1.268   1_455  A
O672       C1893   1.270       .  A
C673        C748   1.484       .  S
O674       C1892   1.270       .  A
O675       Ni686   1.937       .  S
O675       C1882   1.272       .  A
C676       O1890   1.270       .  A
C676        O682   1.276   1_655  A
C676        C815   1.490       .  S
C677       O1888   1.270       .  A
C677        C829   1.486   1_655  S
H678        O679   0.968       .  S
O679      Ni1897   1.908   1_455  S
O679       Ni686   1.922       .  S
O680       Ni681   1.935       .  S
O680       C1886   1.277       .  A
Ni681       O685   1.906       .  S
Ni681       O683   1.905       .  S
Ni681      O1895   1.908       .  S
O682       Ni687   1.938       .  S
C684        O685   1.268       .  A
C684        C762   1.489       .  S
Ni687      O1881   1.905   1_455  S
O689       Ni697   1.909       .  S
O689       C1003   1.280       .  A
O690       Ni697   1.911       .  S
O690        C700   1.280       .  A
O691       Ni697   1.939       .  S
O691        C701   1.285       .  A
O692      Ni1001   1.930       .  S
O692        C702   1.284       .  A
O693       Ni698   1.937       .  S
O694      Ni1002   1.931       .  S
O695       Ni698   1.922       .  S
O696       Ni698   1.924       .  S
Ni697       O996   1.931       .  S
Ni698       O998   1.931   1_554  S
C699        O993   1.280       .  A
C699        C776   1.507       .  S
C700        C790   1.497       .  S
C701        C717   1.500       .  S
C702        C731   1.507       .  S
O703       Ni711   1.936       .  S
O704       Ni711   1.929       .  S
O705       Ni711   1.912       .  S
O706       Ni711   1.916       .  S
O707       Ni712   1.921       .  S
O707        C716   1.283       .  A
O708       Ni712   1.922       .  S
O708        C715   1.282       .  A
O709       Ni712   1.937       .  S
O709        C714   1.285       .  A
O710       Ni712   1.933       .  S
O710        C713   1.283       .  A
C713        C720   1.500       .  S
C714        C734   1.506       .  S
C715        C759   1.509       .  S
C717        C718   1.415       .  A
C718        C719   1.420       .  A
C718        C723   1.449       .  S
C719        C720   1.415       .  A
C719        C726   1.451       .  S
C721        C722   1.419       .  A
C721        C724   1.449       .  S
C722        C725   1.451       .  S
C723        N730   1.157       .  T
C724        N729   1.157       .  T
C725        N727   1.157       .  T
C726        N728   1.157       .  T
C731        C736   1.416       .  A
C732        C733   1.420       .  A
C732        C737   1.451       .  S
C733        C740   1.449       .  S
C734        C735   1.416       .  A
C735        C736   1.419       .  A
C735        C738   1.452       .  S
C736        C739   1.448       .  S
C737        N744   1.157       .  T
C738        N743   1.157       .  T
C739        N741   1.156       .  T
C740        N742   1.157       .  T
C745        C750   1.421       .  A
C746        C747   1.412       .  A
C746        C751   1.451       .  S
C747        C754   1.452       .  S
C748        C749   1.410   1_545  A
C749        C750   1.413       .  A
C749        C752   1.451       .  S
C750        C753   1.451       .  S
C751        N758   1.157       .  T
C752        N757   1.157       .  T
C753        N755   1.157       .  T
C754        N756   1.157       .  T
C759        C760   1.426       .  A
C760        C761   1.415       .  A
C760        C765   1.451       .  S
C761        C762   1.410       .  A
C761        C768   1.452       .  S
C763        C764   1.410       .  A
C763        C766   1.454       .  S
C764        C767   1.453       .  S
C765        N772   1.158       .  T
C766        N771   1.157       .  T
C767        N769   1.158       .  T
C768        N770   1.157       .  T
C773       C1078   1.412   1_546  A
C774       C1077   1.412   1_565  A
C774        C775   1.415       .  A
C774        C779   1.452       .  S
C775        C782   1.451       .  S
C776        C777   1.424       .  A
C777        C778   1.410       .  A
C777        C780   1.453       .  S
C778        C781   1.454       .  S
C779        N786   1.157       .  T
C780        N785   1.158       .  T
C781        N783   1.157       .  T
C782        N784   1.158       .  T
C787        C792   1.408       .  A
C788        C789   1.411       .  A
C788        C793   1.453       .  S
C789        C796   1.452       .  S
C790        C791   1.422       .  A
C791        C792   1.411       .  A
C791        C794   1.452       .  S
C792        C795   1.451       .  S
C793        N800   1.157       .  T
C794        N799   1.157       .  T
C795        N797   1.157       .  T
C796        N798   1.157       .  T
C801        C802   1.416       .  A
C801       C2022   1.416   1_455  A
C802        C807   1.452       .  S
C803        C804   1.418   1_455  A
C803        C810   1.454       .  S
C804       C2021   1.417   1_565  A
C805       C2020   1.417   1_545  A
C805        C808   1.453       .  S
C806       C2017   1.416       .  A
C806        C809   1.453       .  S
C807        N814   1.157       .  T
C808        N813   1.157       .  T
C809        N811   1.157       .  T
C810        N812   1.158       .  T
C815       C1424   1.418   1_565  A
C815        C820   1.417   1_655  A
C816       C1423   1.418       .  A
C816        C817   1.409       .  A
C816        C821   1.454       .  S
C817       C2034   1.415       .  A
C817        C824   1.453       .  S
C818       C2033   1.415   1_455  A
C819        C820   1.410       .  A
C819        C822   1.454       .  S
C820        C823   1.453       .  S
C821        N828   1.158       .  T
C822        N827   1.158       .  T
C823        N825   1.158       .  T
C824        N826   1.158       .  T
C829        C830   1.417   1_455  A
C829       C2050   1.414       .  A
C830        C831   1.412       .  A
C830        C835   1.451       .  S
C831        C832   1.410   1_655  A
C831        C838   1.452       .  S
C832       C2049   1.410       .  A
C833       C2048   1.410       .  A
C833        C834   1.410       .  A
C833        C836   1.449       .  S
C834       C2045   1.414       .  A
C834        C837   1.452       .  S
C835        N842   1.157       .  T
C836        N841   1.156       .  T
C837        N839   1.157       .  T
C838        N840   1.157       .  T
C843       C1882   1.493       .  S
C843       C2060   1.417   1_455  A
C843        C848   1.418       .  A
C844       C2059   1.417       .  A
C844        C845   1.412       .  A
C844        C849   1.452       .  S
C845       C2062   1.409       .  A
C845        C852   1.450       .  S
C846       C2061   1.409       .  A
C846        C847   1.410   1_655  A
C847        C848   1.413       .  A
C847        C850   1.452       .  S
C848        C851   1.451       .  S
C849        N856   1.157       .  T
C850        N855   1.157       .  T
C851        N853   1.157       .  T
C852        N854   1.156       .  T
C857        C858   1.422   1_655  A
C857       C2078   1.422       .  A
C858        C859   1.415       .  A
C858        C863   1.453       .  S
C859        C860   1.419   1_455  A
C859        C866   1.453       .  S
C860       C1838   1.509       .  S
C860       C2077   1.420       .  A
C861       C2076   1.420       .  A
C861        C862   1.415       .  A
C861        C864   1.453       .  S
C862       C2073   1.422       .  A
C862        C865   1.453       .  S
C863        N870   1.158       .  T
C864        N869   1.158       .  T
C865        N867   1.158       .  T
C866        N868   1.158       .  T
C871       C1837   1.509       .  S
C871        C872   1.421   1_655  A
C871       C2092   1.419       .  A
C872        C873   1.416       .  A
C872        C877   1.453       .  S
C873        C874   1.421   1_455  A
C873        C880   1.453       .  S
C874       C2091   1.423       .  A
C875       C2090   1.423       .  A
C875        C876   1.415       .  A
C875        C878   1.453       .  S
C876       C2087   1.419       .  A
C876        C879   1.454       .  S
C877        N884   1.158       .  T
C878        N883   1.158       .  T
C879        N881   1.158       .  T
C880        N882   1.158       .  T
C885       C1190   1.410       .  A
C885       C2106   1.408   1_455  A
C886       C1189   1.410   1_554  A
C886        C887   1.411       .  A
C886        C891   1.450       .  S
C887       C1192   1.415   1_554  A
C887        C894   1.452       .  S
C888       C1191   1.415       .  A
C888       C2105   1.419   1_455  A
C889       C2104   1.419       .  A
C889        C890   1.408       .  A
C889        C892   1.452       .  S
C890       C2101   1.408       .  A
C890        C893   1.452       .  S
C891        N898   1.157       .  T
C892        N897   1.157       .  T
C893        N895   1.157       .  T
C894        N896   1.158       .  T
C899       C2116   1.417       .  A
C899       C1208   1.416   1_554  A
C900       C2115   1.417       .  A
C900        C901   1.410       .  A
C900        C905   1.452       .  S
C901       C2118   1.410   1_455  A
C901        C908   1.452       .  S
C902       C1836   1.479       .  S
C902       C2117   1.410       .  A
C902       C1207   1.410   1_554  A
C903       C1206   1.410       .  A
C903        C904   1.412       .  A
C903        C906   1.450       .  S
C904       C1203   1.416       .  A
C904        C907   1.451       .  S
C905        N912   1.157       .  T
C906        N911   1.157       .  T
C907        N909   1.158       .  T
C908        N910   1.157       .  T
O913       C2139   1.279       .  A
O914       Ni921   1.923       .  S
O914       C2140   1.281       .  A
O915       Ni921   1.921       .  S
O915        C925   1.283       .  A
O916        C926   1.282       .  A
O917       Ni922   1.921       .  S
O917       C2142   1.283   1_455  A
O918       C2141   1.281   1_455  A
O919        C924   1.279   1_455  A
O920       Ni922   1.918       .  S
O920        C923   1.280       .  A
Ni921     Ni1834   2.384       .  S
Ni922     Ni1833   2.383   1_455  S
C923       O2129   1.279   1_455  A
C923       C1189   1.475       .  S
C924       O2130   1.281       .  A
C924       C2422   1.479       .  S
C925       O2134   1.281       .  A
C925       C2391   1.509       .  S
C926       O2133   1.283       .  A
C926       C2380   1.509       .  S
O927       Ni935   1.926       .  S
O927       C2153   1.282       .  A
O928       Ni935   1.917       .  S
O928       C2154   1.280       .  A
O929       Ni935   1.914       .  S
O929       C2155   1.281       .  A
O930       Ni935   1.917       .  S
O930       C2156   1.282       .  A
O931       Ni936   1.922       .  S
O931        C940   1.283   1_455  A
O932       Ni936   1.926       .  S
O932        C939   1.284       .  A
O933       Ni936   1.919       .  S
O933        C938   1.280       .  A
O934       Ni936   1.912       .  S
O934        C937   1.279   1_455  A
Ni935     Ni2152   2.382       .  S
Ni936     Ni2151   2.382   1_455  S
C937       O2143   1.282       .  A
C937       C1150   1.481       .  S
C938       O2144   1.280   1_455  A
C938       C1136   1.477       .  S
C939       O2145   1.281   1_455  A
C939       C1178   1.512       .  S
C940       O2146   1.282       .  A
C940       C1161   1.511       .  S
O941       Ni947   1.918       .  S
O942       Ni965   1.906       .  S
O943        H966   0.967       .  S
O943      Ni1877   1.905       .  S
C944        O961   1.266       .  A
C944       O2169   1.272       .  A
C944       C1203   1.489       .  S
O945       Ni964   1.925       .  S
O946       Ni964   1.894       .  S
O946        C948   1.270       .  A
Ni947       O950   1.921       .  S
Ni947       O952   1.900       .  S
C948       O2174   1.277   1_455  A
C948       C1122   1.489       .  S
O949       Ni965   1.911   1_554  S
O949        C955   1.269   1_454  A
O950       C2171   1.269       .  A
C951       C1077   1.490       .  S
O952       C2170   1.272       .  A
O953       Ni964   1.932       .  S
O953       C2160   1.272       .  A
C954       O2168   1.272       .  A
C954        O960   1.276   1_655  A
C954       C1108   1.491       .  S
C955       O2166   1.269       .  A
C955       C1192   1.485   1_655  S
H956        O957   0.966       .  S
O957      Ni1871   1.911   1_455  S
O958       Ni959   1.937       .  S
O958       C2164   1.277       .  A
Ni959       O963   1.908       .  S
Ni959       O961   1.906       .  S
Ni959      O1869   1.910       .  S
O960       Ni965   1.934       .  S
C962       C1091   1.483   1_556  S
Ni965      O1855   1.905   1_456  S
O967       Ni973   1.923       .  S
O968       Ni991   1.904       .  S
O968        C977   1.267   1_565  A
O969        H992   0.963       .  S
O969       Ni973   1.921       .  S
O969      Ni2207   1.904       .  S
C970        O987   1.267       .  A
C970       O2195   1.272       .  A
C970       C2363   1.492       .  S
O971       Ni990   1.928       .  S
O972       Ni990   1.901       .  S
O972        C974   1.272       .  A
Ni973       O976   1.931       .  S
Ni973       O978   1.894       .  S
C974       O2200   1.276   1_455  A
C974       C1105   1.490       .  S
O975       Ni991   1.908       .  S
O975        C981   1.269   1_455  A
O976       C2197   1.270       .  A
C977       C1052   1.484       .  S
O978       C2196   1.270       .  A
O979       Ni990   1.936       .  S
O979       C2186   1.272       .  A
C980       O2194   1.270       .  A
C980        O986   1.276   1_655  A
C980       C1119   1.490       .  S
C981       O2192   1.270       .  A
C981       C1133   1.486   1_655  S
H982        O983   0.968       .  S
O983      Ni2201   1.908   1_455  S
O983       Ni990   1.922       .  S
O984       Ni985   1.934       .  S
O984       C2190   1.276       .  A
Ni985       O989   1.906       .  S
Ni985       O987   1.904       .  S
Ni985      O2199   1.908       .  S
O986       Ni991   1.937       .  S
C988        O989   1.268       .  A
C988       C1066   1.489       .  S
Ni991      O2185   1.904   1_455  S
O993      Ni1001   1.909   1_556  S
O994      Ni1001   1.912       .  S
O994       C1004   1.280       .  A
O995      Ni1001   1.939   1_556  S
O995       C1005   1.285       .  A
O996       C1006   1.284       .  A
O997      Ni1002   1.937       .  S
O999      Ni1002   1.922       .  S
O1000     Ni1002   1.923       .  S
C1003      C1080   1.507       .  S
C1004      C1094   1.498       .  S
C1005      C1021   1.500       .  S
C1006      C1035   1.506       .  S
O1007     Ni1015   1.937       .  S
O1008     Ni1015   1.929       .  S
O1009     Ni1015   1.912       .  S
O1010     Ni1015   1.916       .  S
O1011     Ni1016   1.922       .  S
O1011      C1020   1.283       .  A
O1012     Ni1016   1.923       .  S
O1012      C1019   1.282       .  A
O1013     Ni1016   1.937       .  S
O1013      C1018   1.285       .  A
O1014     Ni1016   1.933       .  S
O1014      C1017   1.283       .  A
C1017      C1024   1.500       .  S
C1018      C1038   1.506       .  S
C1019      C1063   1.510       .  S
C1021      C1022   1.415       .  A
C1022      C1023   1.420       .  A
C1022      C1027   1.449       .  S
C1023      C1024   1.414       .  A
C1023      C1030   1.451       .  S
C1025      C1026   1.419       .  A
C1025      C1028   1.449       .  S
C1026      C1029   1.451       .  S
C1027      N1034   1.157       .  T
C1028      N1033   1.157       .  T
C1029      N1031   1.157       .  T
C1030      N1032   1.157       .  T
C1035      C1040   1.416       .  A
C1036      C1037   1.419       .  A
C1036      C1041   1.452       .  S
C1037      C1044   1.449       .  S
C1038      C1039   1.416       .  A
C1039      C1040   1.419       .  A
C1039      C1042   1.452       .  S
C1040      C1043   1.449       .  S
C1041      N1048   1.157       .  T
C1042      N1047   1.157       .  T
C1043      N1045   1.156       .  T
C1044      N1046   1.157       .  T
C1049      C1054   1.421       .  A
C1050      C1051   1.412       .  A
C1050      C1055   1.451       .  S
C1051      C1058   1.452       .  S
C1052      C1053   1.410   1_545  A
C1053      C1054   1.413       .  A
C1053      C1056   1.451       .  S
C1054      C1057   1.451       .  S
C1055      N1062   1.157       .  T
C1056      N1061   1.157       .  T
C1057      N1059   1.157       .  T
C1058      N1060   1.157       .  T
C1063      C1064   1.426       .  A
C1064      C1065   1.415       .  A
C1064      C1069   1.451       .  S
C1065      C1066   1.411       .  A
C1065      C1072   1.452       .  S
C1067      C1068   1.410       .  A
C1067      C1070   1.454       .  S
C1068      C1071   1.453       .  S
C1069      N1076   1.158       .  T
C1070      N1075   1.157       .  T
C1071      N1073   1.158       .  T
C1072      N1074   1.157       .  T
C1078      C1079   1.415       .  A
C1078      C1083   1.452       .  S
C1079      C1086   1.451       .  S
C1080      C1081   1.424       .  A
C1081      C1082   1.410       .  A
C1081      C1084   1.453       .  S
C1082      C1085   1.454       .  S
C1083      N1090   1.157       .  T
C1084      N1089   1.158       .  T
C1085      N1087   1.157       .  T
C1086      N1088   1.158       .  T
C1091      C1096   1.408   1_554  A
C1092      C1093   1.411       .  A
C1092      C1097   1.453       .  S
C1093      C1100   1.452       .  S
C1094      C1095   1.422   1_554  A
C1095      C1096   1.412       .  A
C1095      C1098   1.452       .  S
C1096      C1099   1.451       .  S
C1097      N1104   1.157       .  T
C1098      N1103   1.157       .  T
C1099      N1101   1.157       .  T
C1100      N1102   1.157       .  T
C1105      C1106   1.416       .  A
C1105      C2326   1.416   1_455  A
C1106      C1111   1.452       .  S
C1107      C1108   1.418   1_455  A
C1107      C1114   1.454       .  S
C1108      C2325   1.417   1_565  A
C1109      C2324   1.417   1_545  A
C1109      C1112   1.453       .  S
C1110      C2321   1.416       .  A
C1110      C1113   1.453       .  S
C1111      N1118   1.157       .  T
C1112      N1117   1.157       .  T
C1113      N1115   1.157       .  T
C1114      N1116   1.158       .  T
C1119      C1728   1.418   1_565  A
C1119      C1124   1.417   1_655  A
C1120      C1727   1.418       .  A
C1120      C1121   1.409       .  A
C1120      C1125   1.454       .  S
C1121      C2338   1.415       .  A
C1121      C1128   1.453       .  S
C1122      C2337   1.415   1_455  A
C1123      C1124   1.409       .  A
C1123      C1126   1.454       .  S
C1124      C1127   1.453       .  S
C1125      N1132   1.158       .  T
C1126      N1131   1.158       .  T
C1127      N1129   1.158       .  T
C1128      N1130   1.158       .  T
C1133      C1134   1.418   1_455  A
C1133      C2354   1.414       .  A
C1134      C1135   1.412       .  A
C1134      C1139   1.451       .  S
C1135      C1136   1.409   1_655  A
C1135      C1142   1.452       .  S
C1136      C2353   1.410       .  A
C1137      C2352   1.410       .  A
C1137      C1138   1.410       .  A
C1137      C1140   1.449       .  S
C1138      C2349   1.414       .  A
C1138      C1141   1.452       .  S
C1139      N1146   1.157       .  T
C1140      N1145   1.156       .  T
C1141      N1143   1.157       .  T
C1142      N1144   1.157       .  T
C1147      C2186   1.492       .  S
C1147      C2364   1.417   1_455  A
C1147      C1152   1.418       .  A
C1148      C2363   1.417       .  A
C1148      C1149   1.411       .  A
C1148      C1153   1.452       .  S
C1149      C2366   1.409       .  A
C1149      C1156   1.450       .  S
C1150      C2365   1.409       .  A
C1150      C1151   1.410   1_655  A
C1151      C1152   1.413       .  A
C1151      C1154   1.452       .  S
C1152      C1155   1.451       .  S
C1153      N1160   1.157       .  T
C1154      N1159   1.157       .  T
C1155      N1157   1.157       .  T
C1156      N1158   1.156       .  T
C1161      C1162   1.422   1_655  A
C1161      C2382   1.422       .  A
C1162      C1163   1.415       .  A
C1162      C1167   1.453       .  S
C1163      C1164   1.419   1_455  A
C1163      C1170   1.453       .  S
C1164      C2142   1.509       .  S
C1164      C2381   1.420       .  A
C1165      C2380   1.420       .  A
C1165      C1166   1.415       .  A
C1165      C1168   1.453       .  S
C1166      C2377   1.422       .  A
C1166      C1169   1.453       .  S
C1167      N1174   1.158       .  T
C1168      N1173   1.158       .  T
C1169      N1171   1.158       .  T
C1170      N1172   1.158       .  T
C1175      C2141   1.509   1_455  S
C1175      C1176   1.421       .  A
C1175      C2396   1.419   1_455  A
C1176      C1177   1.416       .  A
C1176      C1181   1.453       .  S
C1177      C1178   1.421       .  A
C1177      C1184   1.453       .  S
C1178      C2395   1.423   1_455  A
C1179      C2394   1.423       .  A
C1179      C1180   1.414       .  A
C1179      C1182   1.453       .  S
C1180      C2391   1.419       .  A
C1180      C1183   1.454       .  S
C1181      N1188   1.158       .  T
C1182      N1187   1.158       .  T
C1183      N1185   1.158       .  T
C1184      N1186   1.158       .  T
C1189      C2410   1.408   1_455  A
C1190      C1191   1.411       .  A
C1190      C1195   1.450       .  S
C1191      C1198   1.452       .  S
C1192      C2409   1.419   1_455  A
C1193      C2408   1.419       .  A
C1193      C1194   1.409       .  A
C1193      C1196   1.452       .  S
C1194      C2405   1.408       .  A
C1194      C1197   1.452       .  S
C1195      N1202   1.157       .  T
C1196      N1201   1.157       .  T
C1197      N1199   1.157       .  T
C1198      N1200   1.158       .  T
C1203      C2420   1.417       .  A
C1204      C2419   1.417       .  A
C1204      C1205   1.410       .  A
C1204      C1209   1.452       .  S
C1205      C2422   1.409   1_455  A
C1205      C1212   1.452       .  S
C1206      C2140   1.479       .  S
C1206      C2421   1.409       .  A
C1207      C1208   1.412       .  A
C1207      C1210   1.450       .  S
C1208      C1211   1.452       .  S
C1209      N1216   1.157       .  T
C1210      N1215   1.157       .  T
C1211      N1213   1.158       .  T
C1212      N1214   1.157       .  T
O1217     Ni1529   1.913       .  S
O1218     Ni1225   1.923       .  S
O1219     Ni1225   1.921   1_554  S
O1219      C1229   1.283       .  A
O1220     Ni1529   1.920       .  S
O1220      C1230   1.282       .  A
O1221     Ni1226   1.922       .  S
O1222     Ni1530   1.917   1_554  S
O1223     Ni1530   1.913   1_554  S
O1223      C1228   1.279   1_554  A
O1224     Ni1226   1.918       .  S
O1224      C1227   1.280       .  A
Ni1225     O1521   1.913       .  S
Ni1225     O1524   1.919       .  S
Ni1226     O1526   1.918       .  S
Ni1226     O1527   1.913       .  S
C1227      C1493   1.475       .  S
O1231     Ni1239   1.927       .  S
O1232     Ni1239   1.917       .  S
O1233     Ni1239   1.915       .  S
O1234     Ni1239   1.918       .  S
O1235     Ni1240   1.922       .  S
O1235      C1244   1.283       .  A
O1236     Ni1240   1.926       .  S
O1236      C1243   1.284       .  A
O1237     Ni1240   1.919       .  S
O1237      C1242   1.280       .  A
O1238     Ni1240   1.912       .  S
O1238      C1241   1.279       .  A
C1241      C1454   1.481       .  S
C1242      C1440   1.478       .  S
C1243      C1482   1.512       .  S
C1244      C1465   1.511       .  S
O1245     Ni1251   1.918       .  S
O1245      C1874   1.269       .  A
O1246     Ni1269   1.906       .  S
O1246      C1559   1.268       .  A
O1247      H1270   0.967       .  S
O1247     Ni1555   1.919   1_554  S
O1247     Ni1871   1.918   1_554  S
C1248      O1265   1.267   1_454  A
C1248      C1507   1.490       .  S
O1249     Ni1268   1.925       .  S
O1249      C1863   1.272       .  A
O1250     Ni1268   1.893       .  S
O1250      C1252   1.270       .  A
Ni1251     O1254   1.920       .  S
Ni1251     O1256   1.900       .  S
Ni1251     O1551   1.918       .  S
C1252      C1426   1.489       .  S
O1253     Ni1269   1.912       .  S
O1253      C1259   1.269       .  A
C1255      O1550   1.268   1_554  A
C1255      O1857   1.272       .  A
C1255      C1381   1.490   1_554  S
O1257     Ni1268   1.932       .  S
C1258      O1264   1.276       .  A
C1258      C1412   1.491       .  S
C1259      C1496   1.486       .  S
H1260      O1261   0.966       .  S
O1261     Ni1877   1.925   1_545  S
O1261     Ni1572   1.920       .  S
O1262     Ni1263   1.937   1_554  S
Ni1263     O1267   1.908   1_556  S
Ni1263     O1265   1.907       .  S
Ni1263     O1855   1.918   1_546  S
O1264     Ni1269   1.935       .  S
C1266      O1853   1.269       .  A
C1266      O1571   1.268   1_565  A
C1266      C1395   1.482       .  S
O1267      C1570   1.268   1_544  A
Ni1268     O1565   1.920   1_554  S
Ni1269     O1869   1.925       .  S
O1271     Ni1277   1.924       .  S
O1271      C1900   1.272       .  A
O1272     Ni1295   1.904       .  S
O1272      C1281   1.267       .  A
O1273      H1296   0.963       .  S
O1273     Ni1277   1.921       .  S
O1273     Ni1897   1.917       .  S
C1274      O1291   1.267   1_455  A
O1275     Ni1294   1.929       .  S
O1275      C1889   1.272       .  A
O1276     Ni1294   1.901       .  S
O1276      C1278   1.272       .  A
Ni1277     O1280   1.932       .  S
Ni1277     O1282   1.895       .  S
C1278      C1409   1.490       .  S
O1279     Ni1295   1.908       .  S
O1279      C1285   1.269       .  A
C1281      O1883   1.272       .  A
C1281      C1356   1.484       .  S
O1283     Ni1294   1.937       .  S
C1284      O1290   1.276       .  A
C1284      C1423   1.490       .  S
C1285      C1437   1.487       .  S
H1286      O1287   0.968       .  S
O1287     Ni1903   1.925   1_545  S
O1287     Ni1294   1.922       .  S
O1288     Ni1289   1.934       .  S
Ni1289     O1293   1.906       .  S
Ni1289     O1291   1.905       .  S
Ni1289     O1881   1.918   1_545  S
O1290     Ni1295   1.937       .  S
C1292      O1879   1.272       .  A
C1292      O1293   1.268   1_565  A
C1292      C1370   1.490       .  S
Ni1295     O1895   1.925       .  S
O1297     Ni1305   1.909       .  S
O1297      C1611   1.280       .  A
O1298     Ni1305   1.911       .  S
O1298      C1308   1.280   1_545  A
O1299     Ni1305   1.939       .  S
O1299      C1309   1.285   1_545  A
O1300     Ni1609   1.931       .  S
O1300      C1310   1.284   1_545  A
O1301     Ni1306   1.938       .  S
O1301      C1918   1.285       .  A
O1302     Ni1610   1.930       .  S
O1302      C1917   1.282       .  A
O1303     Ni1306   1.922       .  S
O1303      C2220   1.283       .  A
O1304     Ni1306   1.923       .  S
O1304      C1915   1.282   1_554  A
Ni1305     O1604   1.930       .  S
Ni1305    Ni2218   2.380   1_545  S
Ni1306     O1606   1.931   1_554  S
Ni1306    Ni2217   2.380       .  S
C1307      O1601   1.280   1_566  A
C1307      O1912   1.283   1_556  A
C1307      C1384   1.507   1_565  S
C1308      O2215   1.283       .  A
C1308      C1398   1.497       .  S
C1309      O1910   1.283       .  A
C1309      C1325   1.500       .  S
C1310      O1909   1.285       .  A
C1310      C1339   1.506       .  S
O1311     Ni1319   1.937       .  S
O1311      C1929   1.284       .  A
O1312     Ni1319   1.929       .  S
O1312      C1930   1.283       .  A
O1313     Ni1319   1.912       .  S
O1313      C1931   1.281       .  A
O1314     Ni1319   1.917       .  S
O1314      C1932   1.281       .  A
O1315     Ni1320   1.922       .  S
O1315      C1324   1.283   1_545  A
O1316     Ni1320   1.922       .  S
O1316      C1323   1.282       .  A
O1317     Ni1320   1.937       .  S
O1317      C1322   1.285   1_545  A
O1318     Ni1320   1.933       .  S
O1318      C1321   1.283       .  A
Ni1319    Ni1928   2.379       .  S
Ni1320    Ni1927   2.379   1_545  S
C1321      O1919   1.284   1_545  A
C1321      C1328   1.500       .  S
C1322      O1920   1.283       .  A
C1322      C1342   1.506       .  S
C1323      O1921   1.280   1_545  A
C1323      C1367   1.510   1_545  S
C1324      O1922   1.281       .  A
C1324      C1961   1.498       .  S
C1325      C1326   1.415   1_565  A
C1325      C1938   1.415       .  A
C1326      C1327   1.420       .  A
C1326      C1331   1.449       .  S
C1327      C1328   1.415       .  A
C1327      C1334   1.451       .  S
C1328      C1937   1.414   1_545  A
C1329      C1936   1.414       .  A
C1329      C1330   1.419       .  A
C1329      C1332   1.449       .  S
C1330      C1933   1.415       .  A
C1330      C1333   1.451       .  S
C1331      N1338   1.157       .  T
C1332      N1337   1.157       .  T
C1333      N1335   1.157       .  T
C1334      N1336   1.157       .  T
C1339      C1948   1.416   1_565  A
C1339      C1344   1.416       .  A
C1340      C1947   1.416       .  A
C1340      C1341   1.420       .  A
C1340      C1345   1.451       .  S
C1341      C1950   1.417       .  A
C1341      C1348   1.449       .  S
C1342      C1949   1.417   1_565  A
C1342      C1343   1.416       .  A
C1343      C1344   1.419       .  A
C1343      C1346   1.452       .  S
C1344      C1347   1.448       .  S
C1345      N1352   1.157       .  T
C1346      N1351   1.157       .  T
C1347      N1349   1.156       .  T
C1348      N1350   1.157       .  T
C1353      C1932   1.499       .  S
C1353      C1962   1.419       .  A
C1353      C1358   1.421       .  A
C1354      C1961   1.419   1_545  A
C1354      C1355   1.412       .  A
C1354      C1359   1.451       .  S
C1355      C1964   1.410       .  A
C1355      C1362   1.452       .  S
C1356      C1963   1.410       .  A
C1356      C1357   1.410       .  A
C1357      C1358   1.413       .  A
C1357      C1360   1.451       .  S
C1358      C1361   1.451       .  S
C1359      N1366   1.157       .  T
C1360      N1365   1.157       .  T
C1361      N1363   1.157       .  T
C1362      N1364   1.157       .  T
C1367      C1368   1.426   1_565  A
C1367      C1980   1.425       .  A
C1368      C1369   1.415       .  A
C1368      C1373   1.451       .  S
C1369      C1370   1.411   1_545  A
C1369      C1376   1.452       .  S
C1370      C1979   1.412       .  A
C1371      C1978   1.411       .  A
C1371      C1372   1.411       .  A
C1371      C1374   1.454       .  S
C1372      C1975   1.425       .  A
C1372      C1375   1.453       .  S
C1373      N1380   1.158       .  T
C1374      N1379   1.157       .  T
C1375      N1377   1.158       .  T
C1376      N1378   1.157       .  T
C1381      C1686   1.412   1_556  A
C1381      C1994   1.412       .  A
C1382      C1685   1.412       .  A
C1382      C1383   1.415       .  A
C1382      C1387   1.452       .  S
C1383      C2296   1.424       .  A
C1383      C1390   1.451       .  S
C1384      C2295   1.424   1_546  A
C1384      C1385   1.424       .  A
C1385      C1386   1.410       .  A
C1385      C1388   1.453       .  S
C1386      C1989   1.412       .  A
C1386      C1389   1.454       .  S
C1387      N1394   1.157       .  T
C1388      N1393   1.158       .  T
C1389      N1391   1.157       .  T
C1390      N1392   1.158       .  T
C1395      C2308   1.412       .  A
C1395      C1400   1.408   1_565  A
C1396      C2307   1.413       .  A
C1396      C1397   1.411       .  A
C1396      C1401   1.453       .  S
C1397      C2310   1.418       .  A
C1397      C1404   1.452       .  S
C1398      C2309   1.418       .  A
C1398      C1399   1.422   1_565  A
C1399      C1400   1.411       .  A
C1399      C1402   1.452       .  S
C1400      C1403   1.451       .  S
C1401      N1408   1.157       .  T
C1402      N1407   1.157       .  T
C1403      N1405   1.157       .  T
C1404      N1406   1.157       .  T
C1409      C1410   1.416   1_545  A
C1410      C2019   1.410       .  A
C1410      C1415   1.452       .  S
C1411      C2018   1.410       .  A
C1411      C1412   1.418       .  A
C1411      C1418   1.454       .  S
C1413      C2022   1.409       .  A
C1413      C1416   1.453       .  S
C1414      C2021   1.409       .  A
C1414      C1417   1.453       .  S
C1415      N1422   1.157       .  T
C1416      N1421   1.157       .  T
C1417      N1419   1.158       .  T
C1418      N1420   1.158       .  T
C1423      C1428   1.417       .  A
C1424      C1425   1.409       .  A
C1424      C1429   1.454       .  S
C1425      C1432   1.453       .  S
C1426      C2035   1.418   1_545  A
C1427      C2034   1.418       .  A
C1427      C1428   1.409       .  A
C1427      C1430   1.454       .  S
C1428      C1431   1.453       .  S
C1429      N1436   1.158       .  T
C1430      N1435   1.158       .  T
C1431      N1433   1.158       .  T
C1432      N1434   1.158       .  T
C1437      C1438   1.418       .  A
C1438      C1439   1.412       .  A
C1438      C1443   1.451       .  S
C1439      C1440   1.409       .  A
C1439      C1446   1.452       .  S
C1441      C1442   1.410       .  A
C1441      C1444   1.449       .  S
C1442      C1445   1.452       .  S
C1443      N1450   1.157       .  T
C1444      N1449   1.156       .  T
C1445      N1447   1.157       .  T
C1446      N1448   1.157       .  T
C1451      C1456   1.418       .  A
C1452      C1453   1.411       .  A
C1452      C1457   1.452       .  S
C1453      C1460   1.449       .  S
C1454      C1455   1.410       .  A
C1455      C1456   1.413       .  A
C1455      C1458   1.452       .  S
C1456      C1459   1.451       .  S
C1457      N1464   1.157       .  T
C1458      N1463   1.157       .  T
C1459      N1461   1.157       .  T
C1460      N1462   1.156       .  T
C1465      C1466   1.422       .  A
C1466      C1467   1.415       .  A
C1466      C1471   1.453       .  S
C1467      C1468   1.419       .  A
C1467      C1474   1.453       .  S
C1469      C1470   1.416       .  A
C1469      C1472   1.453       .  S
C1470      C1473   1.453       .  S
C1471      N1478   1.158       .  T
C1472      N1477   1.158       .  T
C1473      N1475   1.158       .  T
C1474      N1476   1.158       .  T
C1479      C1480   1.421       .  A
C1480      C1481   1.416       .  A
C1480      C1485   1.453       .  S
C1481      C1482   1.421       .  A
C1481      C1488   1.453       .  S
C1483      C1484   1.414       .  A
C1483      C1486   1.453       .  S
C1484      C1487   1.454       .  S
C1485      N1492   1.158       .  T
C1486      N1491   1.158       .  T
C1487      N1489   1.158       .  T
C1488      N1490   1.158       .  T
C1493      C1798   1.410       .  A
C1494      C1797   1.410   1_554  A
C1494      C1495   1.411       .  A
C1494      C1499   1.450       .  S
C1495      C1800   1.415   1_554  A
C1495      C1502   1.452       .  S
C1496      C1799   1.415       .  A
C1497      C1498   1.408       .  A
C1497      C1500   1.452       .  S
C1498      C1501   1.453       .  S
C1499      N1506   1.157       .  T
C1500      N1505   1.157       .  T
C1501      N1503   1.157       .  T
C1502      N1504   1.158       .  T
C1507      C1816   1.416   1_454  A
C1508      C1509   1.410       .  A
C1508      C1513   1.452       .  S
C1509      C1516   1.452       .  S
C1510      C1815   1.410   1_554  A
C1511      C1814   1.410       .  A
C1511      C1512   1.413       .  A
C1511      C1514   1.450       .  S
C1512      C1811   1.416   1_655  A
C1512      C1515   1.451       .  S
C1513      N1520   1.157       .  T
C1514      N1519   1.157       .  T
C1515      N1517   1.158       .  T
C1516      N1518   1.157       .  T
O1522     Ni1529   1.924       .  S
O1523     Ni1529   1.921       .  S
O1523      C1533   1.283       .  A
O1524      C1534   1.282       .  A
O1525     Ni1530   1.921       .  S
O1527      C1532   1.279       .  A
O1528     Ni1530   1.919       .  S
O1528      C1531   1.280       .  A
C1531      C1797   1.475       .  S
O1535     Ni1543   1.927       .  S
O1536     Ni1543   1.917       .  S
O1537     Ni1543   1.914       .  S
O1538     Ni1543   1.917       .  S
O1539     Ni1544   1.922       .  S
O1539      C1548   1.283       .  A
O1540     Ni1544   1.926       .  S
O1540      C1547   1.284       .  A
O1541     Ni1544   1.919       .  S
O1541      C1546   1.280       .  A
O1542     Ni1544   1.912       .  S
O1542      C1545   1.279       .  A
C1545      C1758   1.481       .  S
C1546      C1744   1.477       .  S
C1547      C1786   1.512       .  S
C1548      C1769   1.511       .  S
O1549     Ni1555   1.918       .  S
O1549      C2178   1.269       .  A
O1550     Ni1573   1.906       .  S
O1551      H1574   0.967       .  S
O1551     Ni2175   1.918       .  S
C1552      O1569   1.267   1_455  A
C1552      C1811   1.490       .  S
O1553     Ni1572   1.925       .  S
O1553      C2167   1.272       .  A
O1554     Ni1572   1.894       .  S
O1554      C1556   1.270       .  A
Ni1555     O1558   1.921       .  S
Ni1555     O1560   1.900       .  S
C1556      C1730   1.489       .  S
O1557     Ni1573   1.911   1_554  S
O1557      C1563   1.269   1_554  A
C1559      O2161   1.272       .  A
C1559      C1685   1.490       .  S
O1561     Ni1572   1.932       .  S
C1562      O1568   1.276       .  A
C1562      C1716   1.491       .  S
C1563      C1800   1.486       .  S
H1564      O1565   0.966       .  S
O1565     Ni2181   1.925   1_545  S
O1566     Ni1567   1.937       .  S
Ni1567     O1571   1.908       .  S
Ni1567     O1569   1.907       .  S
Ni1567     O2159   1.918   1_545  S
O1568     Ni1573   1.935       .  S
C1570      O2157   1.269       .  A
C1570      C1699   1.482   1_556  S
Ni1573     O2173   1.925       .  S
O1575     Ni1581   1.924       .  S
O1575      C2204   1.272       .  A
O1576     Ni1599   1.905       .  S
O1576      C1585   1.267       .  A
O1577      H1600   0.963       .  S
O1577     Ni1581   1.922       .  S
O1577     Ni2201   1.918       .  S
C1578      O1595   1.267   1_455  A
O1579     Ni1598   1.928       .  S
O1579      C2193   1.272       .  A
O1580     Ni1598   1.901       .  S
O1580      C1582   1.271       .  A
Ni1581     O1584   1.931       .  S
Ni1581     O1586   1.894       .  S
C1582      C1713   1.490       .  S
O1583     Ni1599   1.907       .  S
O1583      C1589   1.268       .  A
C1585      O2187   1.272       .  A
C1585      C1660   1.484       .  S
O1587     Ni1598   1.936       .  S
C1588      O1594   1.276       .  A
C1588      C1727   1.490       .  S
C1589      C1741   1.486       .  S
H1590      O1591   0.968       .  S
O1591     Ni2207   1.925   1_545  S
O1591     Ni1598   1.922       .  S
O1592     Ni1593   1.934       .  S
Ni1593     O1597   1.906       .  S
Ni1593     O1595   1.906       .  S
Ni1593     O2185   1.918   1_545  S
O1594     Ni1599   1.937       .  S
C1596      O2183   1.272       .  A
C1596      O1597   1.268   1_565  A
C1596      C1674   1.489       .  S
Ni1599     O2199   1.924       .  S
O1601     Ni1609   1.909       .  S
O1602     Ni1609   1.911       .  S
O1602      C1612   1.280   1_545  A
O1603     Ni1609   1.939   1_556  S
O1603      C1613   1.285   1_545  A
O1604      C1614   1.284   1_545  A
O1605     Ni1610   1.937       .  S
O1605      C2222   1.285       .  A
O1606      C2221   1.283       .  A
O1607     Ni1610   1.922       .  S
O1607      C1916   1.283       .  A
O1608     Ni1610   1.923       .  S
O1608      C2219   1.282       .  A
Ni1609    Ni1914   2.380   1_545  S
Ni1610    Ni1913   2.380       .  S
C1611      O2216   1.282   1_545  A
C1611      C1688   1.507       .  S
C1612      O1911   1.283       .  A
C1612      C1702   1.497       .  S
C1613      O2214   1.283       .  A
C1613      C1629   1.501       .  S
C1614      O2213   1.285       .  A
C1614      C1643   1.506       .  S
O1615     Ni1623   1.937       .  S
O1615      C2233   1.284       .  A
O1616     Ni1623   1.929       .  S
O1616      C2234   1.283       .  A
O1617     Ni1623   1.912       .  S
O1617      C2235   1.280       .  A
O1618     Ni1623   1.916       .  S
O1618      C2236   1.281       .  A
O1619     Ni1624   1.921       .  S
O1619      C1628   1.283   1_545  A
O1620     Ni1624   1.922       .  S
O1620      C1627   1.282   1_545  A
O1621     Ni1624   1.937       .  S
O1621      C1626   1.285   1_545  A
O1622     Ni1624   1.933       .  S
O1622      C1625   1.283   1_545  A
Ni1623    Ni2232   2.380       .  S
Ni1624    Ni2231   2.379   1_545  S
C1625      O2223   1.284       .  A
C1625      C1632   1.501       .  S
C1626      O2224   1.283       .  A
C1626      C1646   1.506       .  S
C1627      O2225   1.281       .  A
C1627      C1671   1.509       .  S
C1628      O2226   1.281       .  A
C1628      C2265   1.499       .  S
C1629      C1630   1.415   1_565  A
C1629      C2242   1.415       .  A
C1630      C1631   1.420       .  A
C1630      C1635   1.449       .  S
C1631      C1632   1.415   1_545  A
C1631      C1638   1.451       .  S
C1632      C2241   1.414       .  A
C1633      C2240   1.414       .  A
C1633      C1634   1.419       .  A
C1633      C1636   1.449       .  S
C1634      C2237   1.415       .  A
C1634      C1637   1.451       .  S
C1635      N1642   1.157       .  T
C1636      N1641   1.157       .  T
C1637      N1639   1.157       .  T
C1638      N1640   1.157       .  T
C1643      C2252   1.416   1_565  A
C1643      C1648   1.416       .  A
C1644      C2251   1.416       .  A
C1644      C1645   1.419       .  A
C1644      C1649   1.451       .  S
C1645      C2254   1.417       .  A
C1645      C1652   1.449       .  S
C1646      C2253   1.417   1_565  A
C1646      C1647   1.417       .  A
C1647      C1648   1.419       .  A
C1647      C1650   1.452       .  S
C1648      C1651   1.449       .  S
C1649      N1656   1.157       .  T
C1650      N1655   1.157       .  T
C1651      N1653   1.156       .  T
C1652      N1654   1.157       .  T
C1657      C2236   1.499       .  S
C1657      C2266   1.419       .  A
C1657      C1662   1.421       .  A
C1658      C2265   1.419   1_545  A
C1658      C1659   1.411       .  A
C1658      C1663   1.451       .  S
C1659      C2268   1.410       .  A
C1659      C1666   1.452       .  S
C1660      C2267   1.410       .  A
C1660      C1661   1.410       .  A
C1661      C1662   1.413       .  A
C1661      C1664   1.451       .  S
C1662      C1665   1.451       .  S
C1663      N1670   1.157       .  T
C1664      N1669   1.157       .  T
C1665      N1667   1.157       .  T
C1666      N1668   1.157       .  T
C1671      C1672   1.426   1_565  A
C1671      C2284   1.425       .  A
C1672      C1673   1.415       .  A
C1672      C1677   1.451       .  S
C1673      C1674   1.410   1_545  A
C1673      C1680   1.452       .  S
C1674      C2283   1.412       .  A
C1675      C2282   1.411       .  A
C1675      C1676   1.410       .  A
C1675      C1678   1.454       .  S
C1676      C2279   1.425       .  A
C1676      C1679   1.453       .  S
C1677      N1684   1.158       .  T
C1678      N1683   1.157       .  T
C1679      N1681   1.158       .  T
C1680      N1682   1.157       .  T
C1685      C2298   1.412       .  A
C1686      C1687   1.415       .  A
C1686      C1691   1.452       .  S
C1687      C1992   1.424   1_554  A
C1687      C1694   1.451       .  S
C1688      C1991   1.424   1_545  A
C1688      C1689   1.425       .  A
C1689      C1690   1.410       .  A
C1689      C1692   1.453       .  S
C1690      C2293   1.412       .  A
C1690      C1693   1.454       .  S
C1691      N1698   1.157       .  T
C1692      N1697   1.158       .  T
C1693      N1695   1.157       .  T
C1694      N1696   1.158       .  T
C1699      C2004   1.412       .  A
C1699      C1704   1.408   1_564  A
C1700      C2003   1.413       .  A
C1700      C1701   1.411       .  A
C1700      C1705   1.453       .  S
C1701      C2006   1.418       .  A
C1701      C1708   1.452       .  S
C1702      C2005   1.418       .  A
C1702      C1703   1.421   1_564  A
C1703      C1704   1.411       .  A
C1703      C1706   1.452       .  S
C1704      C1707   1.451       .  S
C1705      N1712   1.157       .  T
C1706      N1711   1.157       .  T
C1707      N1709   1.157       .  T
C1708      N1710   1.157       .  T
C1713      C1714   1.416   1_545  A
C1714      C2323   1.410       .  A
C1714      C1719   1.452       .  S
C1715      C2322   1.410       .  A
C1715      C1716   1.418       .  A
C1715      C1722   1.454       .  S
C1717      C2326   1.409       .  A
C1717      C1720   1.453       .  S
C1718      C2325   1.409       .  A
C1718      C1721   1.453       .  S
C1719      N1726   1.157       .  T
C1720      N1725   1.157       .  T
C1721      N1723   1.158       .  T
C1722      N1724   1.158       .  T
C1727      C1732   1.417       .  A
C1728      C1729   1.409       .  A
C1728      C1733   1.454       .  S
C1729      C1736   1.453       .  S
C1730      C2339   1.418   1_545  A
C1731      C2338   1.418       .  A
C1731      C1732   1.409       .  A
C1731      C1734   1.454       .  S
C1732      C1735   1.453       .  S
C1733      N1740   1.158       .  T
C1734      N1739   1.158       .  T
C1735      N1737   1.158       .  T
C1736      N1738   1.158       .  T
C1741      C1742   1.417       .  A
C1742      C1743   1.412       .  A
C1742      C1747   1.451       .  S
C1743      C1744   1.409       .  A
C1743      C1750   1.452       .  S
C1745      C1746   1.410       .  A
C1745      C1748   1.449       .  S
C1746      C1749   1.452       .  S
C1747      N1754   1.157       .  T
C1748      N1753   1.156       .  T
C1749      N1751   1.157       .  T
C1750      N1752   1.157       .  T
C1755      C1760   1.418       .  A
C1756      C1757   1.412       .  A
C1756      C1761   1.452       .  S
C1757      C1764   1.450       .  S
C1758      C1759   1.410       .  A
C1759      C1760   1.413       .  A
C1759      C1762   1.452       .  S
C1760      C1763   1.451       .  S
C1761      N1768   1.157       .  T
C1762      N1767   1.157       .  T
C1763      N1765   1.157       .  T
C1764      N1766   1.156       .  T
C1769      C1770   1.422       .  A
C1770      C1771   1.415       .  A
C1770      C1775   1.453       .  S
C1771      C1772   1.419       .  A
C1771      C1778   1.453       .  S
C1773      C1774   1.415       .  A
C1773      C1776   1.453       .  S
C1774      C1777   1.453       .  S
C1775      N1782   1.158       .  T
C1776      N1781   1.158       .  T
C1777      N1779   1.158       .  T
C1778      N1780   1.158       .  T
C1783      C1784   1.421       .  A
C1784      C1785   1.416       .  A
C1784      C1789   1.453       .  S
C1785      C1786   1.422       .  A
C1785      C1792   1.453       .  S
C1787      C1788   1.414       .  A
C1787      C1790   1.453       .  S
C1788      C1791   1.454       .  S
C1789      N1796   1.158       .  T
C1790      N1795   1.158       .  T
C1791      N1793   1.158       .  T
C1792      N1794   1.158       .  T
C1798      C1799   1.411       .  A
C1798      C1803   1.450       .  S
C1799      C1806   1.452       .  S
C1801      C1802   1.409       .  A
C1801      C1804   1.452       .  S
C1802      C1805   1.453       .  S
C1803      N1810   1.157       .  T
C1804      N1809   1.157       .  T
C1805      N1807   1.157       .  T
C1806      N1808   1.158       .  T
C1812      C1813   1.410       .  A
C1812      C1817   1.452       .  S
C1813      C1820   1.452       .  S
C1815      C1816   1.412       .  A
C1815      C1818   1.450       .  S
C1816      C1819   1.451       .  S
C1817      N1824   1.157       .  T
C1818      N1823   1.157       .  T
C1819      N1821   1.158       .  T
C1820      N1822   1.157       .  T
O1825     Ni2137   1.912       .  S
O1826     Ni1833   1.924       .  S
O1827     Ni1833   1.921   1_554  S
O1827      C1837   1.283       .  A
O1828     Ni2137   1.920       .  S
O1828      C1838   1.282       .  A
O1829     Ni1834   1.921       .  S
O1830     Ni2138   1.917   1_554  S
O1831     Ni2138   1.912   1_554  S
O1831      C1836   1.279       .  A
O1832     Ni1834   1.919       .  S
O1832      C1835   1.280       .  A
Ni1833     O2129   1.914       .  S
Ni1833     O2132   1.919       .  S
Ni1834     O2134   1.917       .  S
Ni1834     O2135   1.913       .  S
C1835      C2101   1.475       .  S
O1839     Ni1847   1.927       .  S
O1840     Ni1847   1.917       .  S
O1841     Ni1847   1.915       .  S
O1842     Ni1847   1.918       .  S
O1843     Ni1848   1.922       .  S
O1843      C1852   1.283       .  A
O1844     Ni1848   1.926       .  S
O1844      C1851   1.284       .  A
O1845     Ni1848   1.919       .  S
O1845      C1850   1.280       .  A
O1846     Ni1848   1.912       .  S
O1846      C1849   1.279       .  A
C1849      C2062   1.481       .  S
C1850      C2048   1.478       .  S
C1851      C2090   1.512       .  S
C1852      C2073   1.510       .  S
O1853     Ni1859   1.918       .  S
O1854     Ni1877   1.905       .  S
O1854      C2167   1.268   1_565  A
O1855      H1878   0.967       .  S
O1855     Ni2163   1.919   1_554  S
C1856      O1873   1.266   1_454  A
C1856      C2115   1.489       .  S
O1857     Ni1876   1.924       .  S
O1858     Ni1876   1.894       .  S
O1858      C1860   1.270       .  A
Ni1859     O1862   1.921       .  S
Ni1859     O1864   1.900       .  S
Ni1859     O2159   1.918       .  S
C1860      C2034   1.489       .  S
O1861     Ni1877   1.911       .  S
O1861      C1867   1.269       .  A
C1863      O2158   1.268   1_544  A
C1863      C1989   1.491   1_554  S
O1865     Ni1876   1.931       .  S
C1866      O1872   1.276       .  A
C1866      C2020   1.491       .  S
C1867      C2104   1.485       .  S
H1868      O1869   0.966       .  S
O1869     Ni2180   1.920       .  S
O1870     Ni1871   1.937   1_554  S
Ni1871     O1875   1.908   1_556  S
Ni1871     O1873   1.906       .  S
O1872     Ni1877   1.934       .  S
C1874      O2179   1.268       .  A
C1874      C2003   1.482       .  S
O1875      C2178   1.268   1_554  A
Ni1876     O2173   1.920   1_554  S
O1879     Ni1885   1.924       .  S
O1880     Ni1903   1.904       .  S
O1880      C1889   1.267   1_565  A
O1881      H1904   0.963       .  S
O1881     Ni1885   1.921       .  S
C1882      O1899   1.267   1_455  A
O1883     Ni1902   1.929       .  S
O1884     Ni1902   1.901       .  S
O1884      C1886   1.272       .  A
Ni1885     O1888   1.932       .  S
Ni1885     O1890   1.894       .  S
C1886      C2017   1.490       .  S
O1887     Ni1903   1.907       .  S
O1887      C1893   1.268       .  A
C1889      C1964   1.484       .  S
O1891     Ni1902   1.937       .  S
C1892      O1898   1.276       .  A
C1892      C2031   1.490       .  S
C1893      C2045   1.486       .  S
H1894      O1895   0.968       .  S
O1895     Ni1902   1.922       .  S
O1896     Ni1897   1.935       .  S
Ni1897     O1901   1.906       .  S
Ni1897     O1899   1.905       .  S
O1898     Ni1903   1.938       .  S
C1900      O1901   1.268       .  A
C1900      C1978   1.489       .  S
O1905     Ni1913   1.909       .  S
O1905      C2219   1.280       .  A
O1906     Ni1913   1.911       .  S
O1906      C1916   1.280       .  A
O1907     Ni1913   1.939       .  S
O1907      C1917   1.285       .  A
O1908     Ni2217   1.930       .  S
O1908      C1918   1.284       .  A
O1909     Ni1914   1.937       .  S
O1910     Ni2218   1.931       .  S
O1911     Ni1914   1.922       .  S
O1912     Ni1914   1.924       .  S
Ni1913     O2212   1.931       .  S
Ni1914     O2214   1.931   1_554  S
C1915      O2209   1.280       .  A
C1915      C1992   1.507       .  S
C1916      C2006   1.497       .  S
C1917      C1933   1.500       .  S
C1918      C1947   1.507       .  S
O1919     Ni1927   1.936       .  S
O1920     Ni1927   1.929       .  S
O1921     Ni1927   1.912       .  S
O1922     Ni1927   1.916       .  S
O1923     Ni1928   1.921       .  S
O1923      C1932   1.283       .  A
O1924     Ni1928   1.922       .  S
O1924      C1931   1.282       .  A
O1925     Ni1928   1.937       .  S
O1925      C1930   1.285       .  A
O1926     Ni1928   1.933       .  S
O1926      C1929   1.283       .  A
C1929      C1936   1.500       .  S
C1930      C1950   1.506       .  S
C1931      C1975   1.509       .  S
C1933      C1934   1.415       .  A
C1934      C1935   1.420       .  A
C1934      C1939   1.449       .  S
C1935      C1936   1.415       .  A
C1935      C1942   1.451       .  S
C1937      C1938   1.419       .  A
C1937      C1940   1.449       .  S
C1938      C1941   1.451       .  S
C1939      N1946   1.157       .  T
C1940      N1945   1.157       .  T
C1941      N1943   1.157       .  T
C1942      N1944   1.157       .  T
C1947      C1952   1.416       .  A
C1948      C1949   1.420       .  A
C1948      C1953   1.451       .  S
C1949      C1956   1.449       .  S
C1950      C1951   1.416       .  A
C1951      C1952   1.419       .  A
C1951      C1954   1.452       .  S
C1952      C1955   1.448       .  S
C1953      N1960   1.157       .  T
C1954      N1959   1.157       .  T
C1955      N1957   1.156       .  T
C1956      N1958   1.157       .  T
C1961      C1966   1.421       .  A
C1962      C1963   1.412       .  A
C1962      C1967   1.451       .  S
C1963      C1970   1.452       .  S
C1964      C1965   1.410   1_545  A
C1965      C1966   1.413       .  A
C1965      C1968   1.451       .  S
C1966      C1969   1.451       .  S
C1967      N1974   1.157       .  T
C1968      N1973   1.157       .  T
C1969      N1971   1.157       .  T
C1970      N1972   1.157       .  T
C1975      C1976   1.426       .  A
C1976      C1977   1.415       .  A
C1976      C1981   1.451       .  S
C1977      C1978   1.410       .  A
C1977      C1984   1.452       .  S
C1979      C1980   1.410       .  A
C1979      C1982   1.454       .  S
C1980      C1983   1.453       .  S
C1981      N1988   1.158       .  T
C1982      N1987   1.157       .  T
C1983      N1985   1.158       .  T
C1984      N1986   1.157       .  T
C1989      C2294   1.412   1_546  A
C1990      C2293   1.412   1_565  A
C1990      C1991   1.415       .  A
C1990      C1995   1.452       .  S
C1991      C1998   1.451       .  S
C1992      C1993   1.424       .  A
C1993      C1994   1.410       .  A
C1993      C1996   1.453       .  S
C1994      C1997   1.454       .  S
C1995      N2002   1.157       .  T
C1996      N2001   1.158       .  T
C1997      N1999   1.157       .  T
C1998      N2000   1.158       .  T
C2003      C2008   1.408       .  A
C2004      C2005   1.411       .  A
C2004      C2009   1.453       .  S
C2005      C2012   1.452       .  S
C2006      C2007   1.422       .  A
C2007      C2008   1.411       .  A
C2007      C2010   1.452       .  S
C2008      C2011   1.451       .  S
C2009      N2016   1.157       .  T
C2010      N2015   1.157       .  T
C2011      N2013   1.157       .  T
C2012      N2014   1.157       .  T
C2017      C2018   1.416       .  A
C2018      C2023   1.452       .  S
C2019      C2020   1.418       .  A
C2019      C2026   1.454       .  S
C2021      C2024   1.453       .  S
C2022      C2025   1.453       .  S
C2023      N2030   1.157       .  T
C2024      N2029   1.157       .  T
C2025      N2027   1.157       .  T
C2026      N2028   1.158       .  T
C2031      C2036   1.417       .  A
C2032      C2033   1.409       .  A
C2032      C2037   1.454       .  S
C2033      C2040   1.453       .  S
C2035      C2036   1.410       .  A
C2035      C2038   1.454       .  S
C2036      C2039   1.453       .  S
C2037      N2044   1.158       .  T
C2038      N2043   1.158       .  T
C2039      N2041   1.158       .  T
C2040      N2042   1.158       .  T
C2045      C2046   1.417       .  A
C2046      C2047   1.412       .  A
C2046      C2051   1.451       .  S
C2047      C2048   1.410       .  A
C2047      C2054   1.452       .  S
C2049      C2050   1.410       .  A
C2049      C2052   1.449       .  S
C2050      C2053   1.452       .  S
C2051      N2058   1.157       .  T
C2052      N2057   1.156       .  T
C2053      N2055   1.157       .  T
C2054      N2056   1.157       .  T
C2059      C2064   1.418       .  A
C2060      C2061   1.412       .  A
C2060      C2065   1.452       .  S
C2061      C2068   1.450       .  S
C2062      C2063   1.410       .  A
C2063      C2064   1.413       .  A
C2063      C2066   1.452       .  S
C2064      C2067   1.451       .  S
C2065      N2072   1.157       .  T
C2066      N2071   1.157       .  T
C2067      N2069   1.157       .  T
C2068      N2070   1.156       .  T
C2073      C2074   1.422       .  A
C2074      C2075   1.415       .  A
C2074      C2079   1.453       .  S
C2075      C2076   1.419       .  A
C2075      C2082   1.453       .  S
C2077      C2078   1.415       .  A
C2077      C2080   1.453       .  S
C2078      C2081   1.453       .  S
C2079      N2086   1.158       .  T
C2080      N2085   1.158       .  T
C2081      N2083   1.158       .  T
C2082      N2084   1.158       .  T
C2087      C2088   1.421       .  A
C2088      C2089   1.416       .  A
C2088      C2093   1.453       .  S
C2089      C2090   1.421       .  A
C2089      C2096   1.453       .  S
C2091      C2092   1.415       .  A
C2091      C2094   1.453       .  S
C2092      C2095   1.454       .  S
C2093      N2100   1.158       .  T
C2094      N2099   1.158       .  T
C2095      N2097   1.158       .  T
C2096      N2098   1.158       .  T
C2101      C2406   1.410       .  A
C2102      C2405   1.410   1_554  A
C2102      C2103   1.411       .  A
C2102      C2107   1.450       .  S
C2103      C2408   1.415   1_554  A
C2103      C2110   1.452       .  S
C2104      C2407   1.415       .  A
C2105      C2106   1.408       .  A
C2105      C2108   1.452       .  S
C2106      C2109   1.452       .  S
C2107      N2114   1.157       .  T
C2108      N2113   1.157       .  T
C2109      N2111   1.157       .  T
C2110      N2112   1.158       .  T
C2115      C2424   1.416   1_454  A
C2116      C2117   1.410       .  A
C2116      C2121   1.452       .  S
C2117      C2124   1.452       .  S
C2118      C2423   1.410   1_554  A
C2119      C2422   1.410       .  A
C2119      C2120   1.412       .  A
C2119      C2122   1.450       .  S
C2120      C2419   1.416   1_655  A
C2120      C2123   1.451       .  S
C2121      N2128   1.157       .  T
C2122      N2127   1.157       .  T
C2123      N2125   1.158       .  T
C2124      N2126   1.157       .  T
O2130     Ni2137   1.923       .  S
O2131     Ni2137   1.921       .  S
O2131      C2141   1.283       .  A
O2132      C2142   1.282       .  A
O2133     Ni2138   1.921       .  S
O2135      C2140   1.279       .  A
O2136     Ni2138   1.918       .  S
O2136      C2139   1.280       .  A
C2139      C2405   1.475       .  S
O2143     Ni2151   1.926       .  S
O2144     Ni2151   1.917       .  S
O2145     Ni2151   1.914       .  S
O2146     Ni2151   1.917       .  S
O2147     Ni2152   1.922       .  S
O2147      C2156   1.283       .  A
O2148     Ni2152   1.926       .  S
O2148      C2155   1.284       .  A
O2149     Ni2152   1.919       .  S
O2149      C2154   1.280       .  A
O2150     Ni2152   1.912       .  S
O2150      C2153   1.279       .  A
C2153      C2366   1.481       .  S
C2154      C2352   1.477       .  S
C2155      C2394   1.512       .  S
C2156      C2377   1.511       .  S
O2157     Ni2163   1.918       .  S
O2158     Ni2181   1.906       .  S
O2159      H2182   0.967       .  S
C2160      O2177   1.266   1_455  A
C2160      C2419   1.489       .  S
O2161     Ni2180   1.925       .  S
O2162     Ni2180   1.894       .  S
O2162      C2164   1.270       .  A
Ni2163     O2166   1.921       .  S
Ni2163     O2168   1.900       .  S
C2164      C2338   1.489       .  S
O2165     Ni2181   1.911   1_554  S
O2165      C2171   1.269   1_554  A
C2167      C2293   1.490       .  S
O2169     Ni2180   1.932       .  S
C2170      O2176   1.276       .  A
C2170      C2324   1.491       .  S
C2171      C2408   1.485       .  S
H2172      O2173   0.966       .  S
O2174     Ni2175   1.937       .  S
Ni2175     O2179   1.908       .  S
Ni2175     O2177   1.906       .  S
O2176     Ni2181   1.934       .  S
C2178      C2307   1.483   1_556  S
O2183     Ni2189   1.923       .  S
O2184     Ni2207   1.904       .  S
O2184      C2193   1.267   1_565  A
O2185      H2208   0.963       .  S
O2185     Ni2189   1.921       .  S
C2186      O2203   1.267   1_455  A
O2187     Ni2206   1.928       .  S
O2188     Ni2206   1.901       .  S
O2188      C2190   1.272       .  A
Ni2189     O2192   1.931       .  S
Ni2189     O2194   1.894       .  S
C2190      C2321   1.490       .  S
O2191     Ni2207   1.908       .  S
O2191      C2197   1.269       .  A
C2193      C2268   1.484       .  S
O2195     Ni2206   1.936       .  S
C2196      O2202   1.276       .  A
C2196      C2335   1.490       .  S
C2197      C2349   1.486       .  S
H2198      O2199   0.968       .  S
O2199     Ni2206   1.922       .  S
O2200     Ni2201   1.934       .  S
Ni2201     O2205   1.906       .  S
Ni2201     O2203   1.904       .  S
O2202     Ni2207   1.937       .  S
C2204      O2205   1.268       .  A
C2204      C2282   1.489       .  S
O2209     Ni2217   1.909   1_556  S
O2210     Ni2217   1.912       .  S
O2210      C2220   1.280       .  A
O2211     Ni2217   1.939   1_556  S
O2211      C2221   1.285       .  A
O2212      C2222   1.284       .  A
O2213     Ni2218   1.937       .  S
O2215     Ni2218   1.922       .  S
O2216     Ni2218   1.923       .  S
C2219      C2296   1.507       .  S
C2220      C2310   1.498       .  S
C2221      C2237   1.500       .  S
C2222      C2251   1.506       .  S
O2223     Ni2231   1.937       .  S
O2224     Ni2231   1.929       .  S
O2225     Ni2231   1.912       .  S
O2226     Ni2231   1.916       .  S
O2227     Ni2232   1.922       .  S
O2227      C2236   1.283       .  A
O2228     Ni2232   1.923       .  S
O2228      C2235   1.282       .  A
O2229     Ni2232   1.937       .  S
O2229      C2234   1.285       .  A
O2230     Ni2232   1.933       .  S
O2230      C2233   1.283       .  A
C2233      C2240   1.500       .  S
C2234      C2254   1.506       .  S
C2235      C2279   1.510       .  S
C2237      C2238   1.415       .  A
C2238      C2239   1.420       .  A
C2238      C2243   1.449       .  S
C2239      C2240   1.414       .  A
C2239      C2246   1.451       .  S
C2241      C2242   1.419       .  A
C2241      C2244   1.449       .  S
C2242      C2245   1.451       .  S
C2243      N2250   1.157       .  T
C2244      N2249   1.157       .  T
C2245      N2247   1.157       .  T
C2246      N2248   1.157       .  T
C2251      C2256   1.416       .  A
C2252      C2253   1.419       .  A
C2252      C2257   1.452       .  S
C2253      C2260   1.449       .  S
C2254      C2255   1.416       .  A
C2255      C2256   1.419       .  A
C2255      C2258   1.452       .  S
C2256      C2259   1.449       .  S
C2257      N2264   1.157       .  T
C2258      N2263   1.157       .  T
C2259      N2261   1.156       .  T
C2260      N2262   1.157       .  T
C2265      C2270   1.421       .  A
C2266      C2267   1.412       .  A
C2266      C2271   1.451       .  S
C2267      C2274   1.452       .  S
C2268      C2269   1.410   1_545  A
C2269      C2270   1.413       .  A
C2269      C2272   1.451       .  S
C2270      C2273   1.451       .  S
C2271      N2278   1.157       .  T
C2272      N2277   1.157       .  T
C2273      N2275   1.157       .  T
C2274      N2276   1.157       .  T
C2279      C2280   1.426       .  A
C2280      C2281   1.415       .  A
C2280      C2285   1.451       .  S
C2281      C2282   1.411       .  A
C2281      C2288   1.452       .  S
C2283      C2284   1.410       .  A
C2283      C2286   1.454       .  S
C2284      C2287   1.453       .  S
C2285      N2292   1.158       .  T
C2286      N2291   1.157       .  T
C2287      N2289   1.158       .  T
C2288      N2290   1.157       .  T
C2294      C2295   1.415       .  A
C2294      C2299   1.452       .  S
C2295      C2302   1.451       .  S
C2296      C2297   1.424       .  A
C2297      C2298   1.410       .  A
C2297      C2300   1.453       .  S
C2298      C2301   1.454       .  S
C2299      N2306   1.157       .  T
C2300      N2305   1.158       .  T
C2301      N2303   1.157       .  T
C2302      N2304   1.158       .  T
C2307      C2312   1.408   1_554  A
C2308      C2309   1.411       .  A
C2308      C2313   1.453       .  S
C2309      C2316   1.452       .  S
C2310      C2311   1.422   1_554  A
C2311      C2312   1.412       .  A
C2311      C2314   1.452       .  S
C2312      C2315   1.451       .  S
C2313      N2320   1.157       .  T
C2314      N2319   1.157       .  T
C2315      N2317   1.157       .  T
C2316      N2318   1.157       .  T
C2321      C2322   1.416       .  A
C2322      C2327   1.452       .  S
C2323      C2324   1.418       .  A
C2323      C2330   1.454       .  S
C2325      C2328   1.453       .  S
C2326      C2329   1.453       .  S
C2327      N2334   1.157       .  T
C2328      N2333   1.157       .  T
C2329      N2331   1.157       .  T
C2330      N2332   1.158       .  T
C2335      C2340   1.417       .  A
C2336      C2337   1.409       .  A
C2336      C2341   1.454       .  S
C2337      C2344   1.453       .  S
C2339      C2340   1.409       .  A
C2339      C2342   1.454       .  S
C2340      C2343   1.453       .  S
C2341      N2348   1.158       .  T
C2342      N2347   1.158       .  T
C2343      N2345   1.158       .  T
C2344      N2346   1.158       .  T
C2349      C2350   1.418       .  A
C2350      C2351   1.412       .  A
C2350      C2355   1.451       .  S
C2351      C2352   1.409       .  A
C2351      C2358   1.452       .  S
C2353      C2354   1.410       .  A
C2353      C2356   1.449       .  S
C2354      C2357   1.452       .  S
C2355      N2362   1.157       .  T
C2356      N2361   1.156       .  T
C2357      N2359   1.157       .  T
C2358      N2360   1.157       .  T
C2363      C2368   1.418       .  A
C2364      C2365   1.411       .  A
C2364      C2369   1.452       .  S
C2365      C2372   1.450       .  S
C2366      C2367   1.410       .  A
C2367      C2368   1.413       .  A
C2367      C2370   1.452       .  S
C2368      C2371   1.451       .  S
C2369      N2376   1.157       .  T
C2370      N2375   1.157       .  T
C2371      N2373   1.157       .  T
C2372      N2374   1.156       .  T
C2377      C2378   1.422       .  A
C2378      C2379   1.415       .  A
C2378      C2383   1.453       .  S
C2379      C2380   1.419       .  A
C2379      C2386   1.453       .  S
C2381      C2382   1.415       .  A
C2381      C2384   1.453       .  S
C2382      C2385   1.453       .  S
C2383      N2390   1.158       .  T
C2384      N2389   1.158       .  T
C2385      N2387   1.158       .  T
C2386      N2388   1.158       .  T
C2391      C2392   1.421       .  A
C2392      C2393   1.416       .  A
C2392      C2397   1.453       .  S
C2393      C2394   1.421       .  A
C2393      C2400   1.453       .  S
C2395      C2396   1.414       .  A
C2395      C2398   1.453       .  S
C2396      C2399   1.454       .  S
C2397      N2404   1.158       .  T
C2398      N2403   1.158       .  T
C2399      N2401   1.158       .  T
C2400      N2402   1.158       .  T
C2406      C2407   1.411       .  A
C2406      C2411   1.450       .  S
C2407      C2414   1.452       .  S
C2409      C2410   1.409       .  A
C2409      C2412   1.452       .  S
C2410      C2413   1.452       .  S
C2411      N2418   1.157       .  T
C2412      N2417   1.157       .  T
C2413      N2415   1.157       .  T
C2414      N2416   1.158       .  T
C2420      C2421   1.410       .  A
C2420      C2425   1.452       .  S
C2421      C2428   1.452       .  S
C2423      C2424   1.412       .  A
C2423      C2426   1.450       .  S
C2424      C2427   1.452       .  S
C2425      N2432   1.157       .  T
C2426      N2431   1.157       .  T
C2427      N2429   1.158       .  T
C2428      N2430   1.157       .  T
