geometry optimzed in LAMMPS
_audit_creation_date              2020-11-30 
_audit_creation_method            'lammps2cif' 
_symmetry_space_group_name_H-M    'P1' 
_symmetry_Int_Tables_number       1 
_symmetry_cell_setting            triclinic 
loop_ 
_symmetry_equiv_pos_as_xyz 
  x,y,z 
_cell_length_a                    66.312035 
_cell_length_b                    66.19346755327517 
_cell_length_c                    66.49334788048687 
_cell_angle_alpha                 90.35576978096763 
_cell_angle_beta                  89.74730494368453 
_cell_angle_gamma                 89.68650954471053 
loop_ 
_atom_site_label 
_atom_site_type_symbol 
_atom_site_fract_x 
_atom_site_fract_y 
_atom_site_fract_z 
_atom_site_charge 
O1          O  0.74028790  0.59434770  0.82107875    -0.57300
C2          C  0.70795212  0.58153689  0.87565301     0.75300
O3          O  0.67324023  0.59898599  0.82510665    -0.58500
C4          C  0.73572475  0.59370508  0.80254931     0.75300
C5          C  0.70501843  0.54136776  0.82389652     0.77700
Cd6        Cd  0.70671057  0.58378526  0.83277635     1.37500
O7          O  0.72295534  0.58908684  0.86652576    -0.57300
O8          O  0.72086359  0.55039060  0.82938035    -0.56100
C9          C  0.67834221  0.61655135  0.83092668     0.77600
O10         O  0.68921518  0.55215062  0.82211474    -0.58500
O11         O  0.69374652  0.57486019  0.86495015    -0.57000
O12         O  0.71759422  0.58949983  0.79835853    -0.56900
O13         O  0.69642334  0.61866095  0.83650864    -0.56100
O14         O  0.84866744  0.59528873  0.73122356    -0.57300
C15         C  0.90017354  0.58083996  0.69666490     0.75300
O16         O  0.84628703  0.54839456  0.68202190    -0.58500
C17         C  0.82978406  0.59383490  0.72863560     0.75300
C18         C  0.84895700  0.61129938  0.66587910     0.77700
Cd19       Cd  0.85701496  0.58171393  0.69724460     1.37500
O20         O  0.89150407  0.58758472  0.71238447    -0.57300
O21         O  0.85806126  0.61567767  0.68201807    -0.56100
C22         C  0.85079800  0.53802314  0.69737001     0.77600
O23         O  0.84304084  0.59315947  0.66422540    -0.58500
O24         O  0.88897998  0.57554818  0.68226038    -0.57000
O25         O  0.82404310  0.58769737  0.71155281    -0.56900
O26         O  0.85765550  0.54784292  0.71218513    -0.56100
O27         O  0.56632806  0.76471428  0.83486433    -0.57300
C28         C  0.55668206  0.73293907  0.88678692     0.75300
O29         O  0.53040488  0.70841428  0.83288365    -0.58500
C30         C  0.56869459  0.76120052  0.81624793     0.75300
C31         C  0.58828965  0.69698299  0.83810005     0.77700
Cd32       Cd  0.55917727  0.72924931  0.84374268     1.37500
O33         O  0.56876180  0.74418452  0.87730161    -0.57300
O34         O  0.59360896  0.71422270  0.84443551    -0.56100
C35         C  0.51778068  0.72282735  0.83262038     0.77600
O36         O  0.56975937  0.69490912  0.83426243    -0.58500
O37         O  0.54590947  0.72123656  0.87639829    -0.57000
O38         O  0.56757991  0.74290859  0.81073853    -0.56900
O39         O  0.52447215  0.74016243  0.83702665    -0.56100
O40         O  0.56597066  0.85337014  0.72663862    -0.57300
C41         C  0.55581676  0.90691537  0.69531430     0.75300
O42         O  0.56120164  0.85125811  0.65800709    -0.58500
C43         C  0.56644651  0.83465974  0.72248333     0.75300
C44         C  0.51000950  0.85825497  0.69618395     0.77700
Cd45       Cd  0.55340404  0.86359947  0.69301042     1.37500
O46         O  0.56467858  0.89640998  0.70850320    -0.57300
O47         O  0.52085767  0.86442612  0.71051696    -0.56100
C48         C  0.57968278  0.85612961  0.65841840     0.77600
O49         O  0.51918973  0.85418519  0.67986208    -0.58500
O50         O  0.54623364  0.89742268  0.68189416    -0.57000
O51         O  0.56188098  0.82976072  0.70466021    -0.56900
O52         O  0.58581323  0.86388255  0.67472453    -0.56100
O53         O  0.84087190  0.76720345  0.56582035    -0.57300
C54         C  0.89489457  0.73503034  0.55502175     0.75300
O55         O  0.84338678  0.69901238  0.57013990    -0.58500
C56         C  0.82228798  0.76290876  0.56466406     0.75300
C57         C  0.84621430  0.73049419  0.51246396     0.77700
Cd58       Cd  0.85219919  0.73279912  0.55563245     1.37500
O59         O  0.88511573  0.75009534  0.56192526    -0.57300
O60         O  0.85364007  0.74555916  0.52150715    -0.56100
C61         C  0.85003855  0.70311282  0.58757854     0.77600
O62         O  0.84120094  0.71567163  0.52343127    -0.58500
O63         O  0.88483399  0.72026007  0.54841609    -0.57000
O64         O  0.81803971  0.74467573  0.56079150    -0.56900
O65         O  0.85669259  0.72083153  0.59010822    -0.56100
O66         O  0.72888218  0.85015504  0.54998241    -0.57300
C67         C  0.69821151  0.90364758  0.54027171     0.75300
O68         O  0.67663016  0.85204879  0.50787226    -0.58500
C69         C  0.72495084  0.83147178  0.55088858     0.75300
C70         C  0.66602708  0.85794850  0.57349507     0.77700
Cd71       Cd  0.69468896  0.86061228  0.54038048     1.37500
O72         O  0.71237367  0.89328476  0.54786411    -0.57300
O73         O  0.68292551  0.86662678  0.57464570    -0.56100
C74         C  0.69169902  0.85656713  0.49692396     0.77600
O75         O  0.66189727  0.84991471  0.55659872    -0.58500
O76         O  0.68344385  0.89405791  0.53305798    -0.57000
O77         O  0.70697545  0.82638438  0.54705360    -0.56900
O78         O  0.70765934  0.86121861  0.50615287    -0.56100
O79         O  0.71212145  0.93698233  0.54620844    -0.57300
C80         C  0.70489851  0.00881286  0.54253516     0.75300
O81         O  0.67614074  0.96981806  0.50496883    -0.58500
C82         C  0.69792868  0.92574802  0.53971738     0.75300
C83         C  0.66223412  0.96896070  0.56676316     0.77700
Cd84       Cd  0.69246721  0.96812856  0.53729095     1.37500
O85         O  0.71716235  0.99491557  0.54787140    -0.57300
O86         O  0.68069748  0.96727704  0.57146073    -0.56100
C87         C  0.69260156  0.96917815  0.49513311     0.77600
O88         O  0.65802641  0.97097019  0.54826813    -0.58500
O89         O  0.68818128  0.00337286  0.53527861    -0.57000
O90         O  0.68256008  0.93436522  0.53247821    -0.56900
O91         O  0.70884368  0.96775807  0.50508934    -0.56100
O92         O  0.56464485  0.93999669  0.70829684    -0.57300
C93         C  0.56381160  0.01293708  0.69140417     0.75300
O94         O  0.57096660  0.96756666  0.65535789    -0.58500
C95         C  0.55669963  0.92900330  0.69457021     0.75300
C96         C  0.51670555  0.97505380  0.69315977     0.77700
Cd97       Cd  0.55815323  0.97094225  0.68839417     1.37500
O98         O  0.56907652  0.00196705  0.70630274    -0.57300
O99         O  0.52834031  0.97465056  0.70833599    -0.56100
C100        C  0.58926731  0.96598948  0.66088701     0.77600
O101        O  0.52468677  0.97387749  0.67572923    -0.58500
O102        O  0.55687521  0.00414350  0.67593765    -0.57000
O103        O  0.54945957  0.93777368  0.67929325    -0.56900
O104        O  0.59300209  0.96657355  0.67964302    -0.56100
O105        O  0.83833575  0.36324573  0.72283893    -0.57300
C106        C  0.89119144  0.36825598  0.69130449     0.75300
O107        O  0.83629062  0.36397931  0.65393998    -0.58500
C108        C  0.81960580  0.36618090  0.72054889     0.75300
C109        C  0.84575258  0.41747419  0.68524655     0.77700
Cd110      Cd  0.84810558  0.37354966  0.68843099     1.37500
O111        O  0.88019625  0.36132768  0.70524118    -0.57300
O112        O  0.85222767  0.40860769  0.70075056    -0.56100
C113        C  0.83954158  0.34521637  0.65585284     0.77600
O114        O  0.84018086  0.40607458  0.67095052    -0.58500
O115        O  0.88223261  0.37686825  0.67697011    -0.57000
O116        O  0.81408022  0.37183185  0.70326297    -0.56900
O117        O  0.84557323  0.33961911  0.67297945    -0.56100
O118        O  0.73416735  0.37003271  0.81782785    -0.57300
C119        C  0.70462996  0.37685542  0.87460563     0.75300
O120        O  0.67916948  0.40979262  0.82395304    -0.58500
C121        C  0.72899084  0.37157058  0.79954639     0.75300
C122        C  0.67042834  0.34802217  0.82527994     0.77700
Cd123      Cd  0.70013934  0.37917994  0.83136993     1.37500
O124        O  0.71848642  0.36959591  0.86347425    -0.57300
O125        O  0.68805042  0.34420748  0.83145349    -0.56100
C126        C  0.69378689  0.42196338  0.82547407     0.77600
O127        O  0.66657591  0.36635086  0.82138613    -0.58500
O128        O  0.69008234  0.38534677  0.86575794    -0.57000
O129        O  0.71076999  0.37623961  0.79637456    -0.56900
O130        O  0.71073046  0.41427771  0.82982262    -0.56100
O131        O  0.57588302  0.18770176  0.82259210    -0.57300
C132        C  0.56901899  0.21869809  0.87964758     0.75300
O133        O  0.58025866  0.25568888  0.82664915    -0.58500
C134        C  0.57568681  0.19338343  0.80439000     0.75300
C135        C  0.52457169  0.22692211  0.83260419     0.77700
Cd136      Cd  0.56767917  0.22183494  0.83646353     1.37500
O137        O  0.57546469  0.20386588  0.86922031    -0.57300
O138        O  0.53256854  0.21057013  0.83836908    -0.56100
C139        C  0.59862856  0.25175855  0.83026223     0.77600
O140        O  0.53659058  0.24104022  0.82807545    -0.58500
O141        O  0.56294417  0.23399162  0.87010494    -0.57000
O142        O  0.57224803  0.21193416  0.80143537    -0.56900
O143        O  0.60250922  0.23404561  0.83628661    -0.56100
O144        O  0.83938885  0.18953147  0.55399664    -0.57300
C145        C  0.89479677  0.21857932  0.54741173     0.75300
O146        O  0.84264733  0.24201181  0.51211495    -0.58500
C147        C  0.82085497  0.19374340  0.55192350     0.75300
C148        C  0.84583856  0.25420497  0.57600686     0.77700
Cd149      Cd  0.85165820  0.22386770  0.54453115     1.37500
O150        O  0.88349005  0.20393449  0.55208570    -0.57300
O151        O  0.85217189  0.23643922  0.57915514    -0.56100
C152        C  0.85003057  0.22808474  0.50107846     0.77600
O153        O  0.84165663  0.25835696  0.55788356    -0.58500
O154        O  0.88611358  0.23474470  0.54213973    -0.57000
O155        O  0.81679284  0.21171746  0.54689372    -0.56900
O156        O  0.85724887  0.21303312  0.51021467    -0.56100
O157        O  0.57363731  0.08592142  0.72471386    -0.57300
C158        C  0.56473310  0.03503046  0.69151250     0.75300
O159        O  0.53111723  0.09060063  0.67428632    -0.58500
C160        C  0.57229456  0.10492648  0.72314289     0.75300
C161        C  0.59191090  0.08677441  0.65821406     0.77700
Cd162      Cd  0.56295811  0.07836089  0.69003956     1.37500
O163        O  0.57180891  0.04526453  0.70597260    -0.57300
O164        O  0.59708960  0.07954366  0.67501452    -0.56100
C165        C  0.51964968  0.08364700  0.68785433     0.77600
O166        O  0.57331316  0.09074926  0.65623018    -0.58500
O167        O  0.55776680  0.04479514  0.67678816    -0.57000
O168        O  0.56717596  0.11160369  0.70610737    -0.56900
O169        O  0.52824908  0.07450980  0.70210174    -0.56100
O170        O  0.74693015  0.08185602  0.55749933    -0.57300
C171        C  0.70879783  0.03055479  0.54430032     0.75300
O172        O  0.67831015  0.08579436  0.56022143    -0.58500
C173        C  0.74471419  0.10081674  0.55546174     0.75300
C174        C  0.71235666  0.08114543  0.50315523     0.77700
Cd175      Cd  0.71194930  0.07384616  0.54616649     1.37500
O176        O  0.72472912  0.03811517  0.55165478    -0.57300
O177        O  0.72614273  0.07177222  0.51238169    -0.56100
C178        C  0.68255927  0.08133270  0.57828288     0.77600
O179        O  0.69767700  0.08750027  0.51386402    -0.58500
O180        O  0.69549152  0.04280952  0.53826802    -0.57000
O181        O  0.72735628  0.10686549  0.55028986    -0.56900
O182        O  0.70005679  0.07416882  0.58110789    -0.56100
O183        O  0.99158954  0.20266246  0.55223917    -0.57300
C184        C  0.91695285  0.21778750  0.54761802     0.75300
O185        O  0.95895905  0.25374197  0.56124061    -0.58500
C186        C  0.00187720  0.21807127  0.54686796     0.75300
C187        C  0.95995433  0.22111902  0.50360066     0.77700
Cd188      Cd  0.95942057  0.22142692  0.54592075     1.37500
O189        O  0.92744395  0.20211887  0.55204038    -0.57300
O190        O  0.96066168  0.20462658  0.51334397    -0.56100
C191        C  0.95924396  0.24745358  0.57927595     0.77600
O192        O  0.95890060  0.23746607  0.51372117    -0.58500
O193        O  0.92635974  0.23368033  0.54288414    -0.57000
O194        O  0.99229411  0.23385772  0.54182430    -0.56900
O195        O  0.95972988  0.22841124  0.58199527    -0.56100
O196        O  0.98608416  0.35895048  0.70623613    -0.57300
C197        C  0.91329053  0.36714249  0.69100429     0.75300
O198        O  0.95546926  0.40291423  0.67440527    -0.58500
C199        C  0.99767930  0.36670092  0.69293882     0.75300
C200        C  0.95714815  0.34055784  0.65505782     0.77700
Cd201      Cd  0.95561979  0.36918636  0.68632616     1.37500
O202        O  0.92411066  0.35985905  0.70515499    -0.57300
O203        O  0.95670204  0.33520547  0.67339292    -0.56100
C204        C  0.95433573  0.41101005  0.69177846     0.77600
O205        O  0.95677998  0.35939185  0.65139264    -0.58500
O206        O  0.92232095  0.37421491  0.67581176    -0.57000
O207        O  0.98946680  0.37524175  0.67806698    -0.56900
O208        O  0.95408850  0.39936893  0.70692707    -0.56100
O209        O  0.07828739  0.19109186  0.55796100    -0.57300
C210        C  0.02399876  0.21856050  0.54596757     0.75300
O211        O  0.07794508  0.25831467  0.55139382    -0.58500
C212        C  0.09694353  0.19363335  0.55469729     0.75300
C213        C  0.07205316  0.22436924  0.49931030     0.77700
Cd214      Cd  0.06727453  0.22321718  0.54270929     1.37500
O215        O  0.03532258  0.20403815  0.55108058    -0.57300
O216        O  0.06970697  0.20818766  0.50904486    -0.56100
C217        C  0.07461280  0.25656546  0.57007662     0.77600
O218        O  0.07275152  0.24046012  0.50968481    -0.58500
O219        O  0.03266383  0.23424689  0.53967199    -0.57000
O220        O  0.10183347  0.21001586  0.54627376    -0.56900
O221        O  0.06872870  0.23940648  0.57587587    -0.56100
O222        O  0.18206769  0.09655956  0.56061674    -0.57300
C223        C  0.21178053  0.03770878  0.55070008     0.75300
O224        O  0.22789868  0.09096823  0.51514276    -0.58500
C225        C  0.18731224  0.11439242  0.55595331     0.75300
C226        C  0.24430761  0.08688819  0.58033865     0.77700
Cd227      Cd  0.21443046  0.08094993  0.54910965     1.37500
O228        O  0.19675062  0.04797046  0.55707014    -0.57300
O229        O  0.22586339  0.08327175  0.58368642    -0.56100
C230        C  0.21365990  0.08243638  0.50559919     0.77600
O231        O  0.24948669  0.08815939  0.56195296    -0.58500
O232        O  0.22709116  0.04749929  0.54500201    -0.57000
O233        O  0.20490132  0.11638169  0.54879971    -0.56900
O234        O  0.20064800  0.07343245  0.51618448    -0.56100
O235        O  0.34133879  0.09202494  0.73147475    -0.57300
C236        C  0.35173991  0.03901202  0.69919190     0.75300
O237        O  0.35056737  0.09124084  0.66237051    -0.58500
C238        C  0.34443158  0.11078796  0.72951849     0.75300
C239        C  0.39971493  0.08423423  0.70059947     0.77700
Cd240      Cd  0.35612435  0.08232521  0.69848898     1.37500
O241        O  0.34583348  0.04918776  0.71433659    -0.57300
O242        O  0.38903481  0.07548835  0.71366410    -0.56100
C243        C  0.33150929  0.09009777  0.66332617     0.77600
O244        O  0.39021821  0.09303649  0.68662312    -0.58500
O245        O  0.35865180  0.04887062  0.68452423    -0.57000
O246        O  0.35182149  0.11632949  0.71286061    -0.56900
O247        O  0.32412512  0.08672269  0.68057778    -0.56100
O248        O  0.34744856  0.19557757  0.82739082    -0.57300
C249        C  0.35835851  0.22843427  0.88383207     0.75300
O250        O  0.39557703  0.23997892  0.83258362    -0.58500
C251        C  0.35054908  0.20037205  0.80915185     0.75300
C252        C  0.33444831  0.26146245  0.83269604     0.77700
Cd253      Cd  0.36116679  0.22786840  0.84077234     1.37500
O254        O  0.35034193  0.21369197  0.87457689    -0.57300
O255        O  0.32835947  0.24435260  0.83852943    -0.56100
C256        C  0.40422962  0.22354195  0.83737005     0.77600
O257        O  0.35334241  0.26322110  0.83009640    -0.58500
O258        O  0.36696025  0.24162228  0.87321835    -0.57000
O259        O  0.35780310  0.21772666  0.80606606    -0.56900
O260        O  0.39290173  0.20944748  0.84332820    -0.56100
O261        O  0.07251791  0.35954086  0.72612068    -0.57300
C262        C  0.01980373  0.36621341  0.69361351     0.75300
O263        O  0.07412052  0.39937217  0.67348094    -0.58500
C264        C  0.09139175  0.35921317  0.72302429     0.75300
C265        C  0.07036408  0.33585319  0.66117969     0.77700
Cd266      Cd  0.06325319  0.36732823  0.69106474     1.37500
O267        O  0.02996683  0.35811520  0.70752990    -0.57300
O268        O  0.06412918  0.33248255  0.67884974    -0.56100
C269        C  0.06967984  0.41061784  0.68840710     0.77600
O270        O  0.07393101  0.35417409  0.65701116    -0.58500
O271        O  0.02967607  0.37417609  0.67946070    -0.57000
O272        O  0.09710954  0.36161049  0.70500899    -0.56900
O273        O  0.06251069  0.40179318  0.70362402    -0.56100
O274        O  0.17827754  0.36267410  0.81748782    -0.57300
C275        C  0.20437014  0.36987041  0.87391763     0.75300
O276        O  0.24649389  0.35792605  0.82337018    -0.58500
C277        C  0.18370014  0.36181370  0.79920246     0.75300
C278        C  0.21602283  0.41477348  0.82614369     0.77700
Cd279      Cd  0.21165138  0.37137099  0.83102868     1.37500
O280        O  0.19116764  0.36265724  0.86220630    -0.57300
O281        O  0.19938114  0.40637726  0.83000596    -0.56100
C282        C  0.24231930  0.33998249  0.82847700     0.77600
O283        O  0.23104461  0.40301671  0.82380269    -0.58500
O284        O  0.21977451  0.37745778  0.86573736    -0.57000
O285        O  0.20224177  0.36469937  0.79567571    -0.56900
O286        O  0.22430106  0.33691146  0.83393638    -0.56100
O287        O  0.19928019  0.94183034  0.55181067    -0.57300
C288        C  0.21232547  0.01553510  0.54896931     0.75300
O289        O  0.25364882  0.97243120  0.55121890    -0.58500
C290        C  0.21337878  0.93075011  0.54439166     0.75300
C291        C  0.21422870  0.97424926  0.50085835     0.77700
Cd292      Cd  0.21843484  0.97331413  0.54259002     1.37500
O293        O  0.19814771  0.00370618  0.55444038    -0.57300
O294        O  0.19870480  0.97345934  0.51211072    -0.56100
C295        C  0.25002589  0.97216393  0.57000856     0.77600
O296        O  0.23134988  0.97510191  0.50930734    -0.58500
O297        O  0.22787139  0.00752290  0.54113838    -0.57000
O298        O  0.22847664  0.93961515  0.53689788    -0.56900
O299        O  0.23167718  0.97220136  0.57566743    -0.56100
O300        O  0.34636116  0.94493096  0.71343650    -0.57300
C301        C  0.35143438  0.01686176  0.69794298     0.75300
O302        O  0.38600153  0.97516071  0.67224922    -0.58500
C303        C  0.35168534  0.93256748  0.69951739     0.75300
C304        C  0.32374674  0.97360193  0.66323818     0.77700
Cd305      Cd  0.35508283  0.97450774  0.69120030     1.37500
O306        O  0.34780642  0.00518236  0.71276053    -0.57300
O307        O  0.31995448  0.97466763  0.68196648    -0.56100
C308        C  0.39735907  0.97545038  0.68755743     0.77600
O309        O  0.34212522  0.97270768  0.65784284    -0.58500
O310        O  0.35578918  0.00866437  0.68124910    -0.57000
O311        O  0.35861475  0.93996606  0.68344830    -0.56900
O312        O  0.38891658  0.97509411  0.70475201    -0.56100
O313        O  0.98918739  0.74619760  0.55820067    -0.57300
C314        C  0.91684427  0.73357789  0.55469934     0.75300
O315        O  0.95728037  0.70588891  0.52215834    -0.58500
C316        C  0.00030395  0.73111131  0.55317861     0.75300
C317        C  0.95869944  0.69847177  0.58496248     0.77700
Cd318      Cd  0.95832362  0.72535289  0.55269036     1.37500
O319        O  0.92873792  0.74769042  0.56023547    -0.57300
O320        O  0.95937598  0.71735254  0.58849873    -0.56100
C321        C  0.95778058  0.72116351  0.51070601     0.77600
O322        O  0.95747420  0.69281080  0.56674355    -0.58500
O323        O  0.92457401  0.71709297  0.54873107    -0.57000
O324        O  0.99166327  0.71472786  0.54865629    -0.56900
O325        O  0.95851920  0.73852747  0.51897230    -0.56100
O326        O  0.93512620  0.58329256  0.70749964    -0.57300
C327        C  0.00515242  0.57356620  0.68731041     0.75300
O328        O  0.95931028  0.54055476  0.66686170    -0.58500
C329        C  0.92201891  0.57858573  0.69423773     0.75300
C330        C  0.96200331  0.60228495  0.65489447     0.77700
Cd331      Cd  0.96286296  0.57199593  0.68386762     1.37500
O332        O  0.99455350  0.57887072  0.70258384    -0.57300
O333        O  0.96456127  0.60655294  0.67336163    -0.56100
C334        C  0.95996491  0.52990099  0.68264624     0.77600
O335        O  0.96011008  0.58378811  0.65009720    -0.58500
O336        O  0.99594830  0.56759784  0.67176305    -0.57000
O337        O  0.92835279  0.57126272  0.67778573    -0.56900
O338        O  0.96244266  0.53900160  0.69934215    -0.56100
O339        O  0.33902980  0.75067112  0.82006871    -0.57300
C340        C  0.35299916  0.72475375  0.87537816     0.75300
O341        O  0.34789599  0.68376036  0.82379623    -0.58500
C342        C  0.34116827  0.74603942  0.80162707     0.75300
C343        C  0.39825273  0.72395735  0.82570602     0.77700
Cd344      Cd  0.35548194  0.71979899  0.83227741     1.37500
O345        O  0.34729163  0.73905741  0.86415141    -0.57300
O346        O  0.38668070  0.73871096  0.82956948    -0.56100
C347        C  0.32892047  0.68604772  0.82527176     0.77600
O348        O  0.39000088  0.70675457  0.82432728    -0.58500
O349        O  0.35936459  0.70891406  0.86667552    -0.57000
O350        O  0.34940457  0.72916219  0.79770359    -0.56900
O351        O  0.32272095  0.70366984  0.82959449    -0.56100
O352        O  0.33586628  0.85714246  0.73163872    -0.57300
C353        C  0.34995739  0.91049303  0.70063148     0.75300
O354        O  0.37739622  0.85589013  0.67806108    -0.58500
C355        C  0.33609755  0.83833257  0.72787917     0.75300
C356        C  0.31648563  0.86171805  0.66775442     0.77700
Cd357      Cd  0.34735073  0.86705546  0.69780442     1.37500
O358        O  0.34230069  0.90103035  0.71528865    -0.57300
O359        O  0.31247848  0.86855230  0.68514480    -0.56100
C360        C  0.38968050  0.85749626  0.69252532     0.77600
O361        O  0.33475570  0.85717158  0.66431331    -0.58500
O362        O  0.35600246  0.89995101  0.68589497    -0.57000
O363        O  0.34107991  0.83309747  0.71020285    -0.56900
O364        O  0.38220074  0.86272718  0.70932637    -0.56100
O365        O  0.18358909  0.85197422  0.54870797    -0.57300
C366        C  0.21329475  0.90853621  0.54387317     0.75300
O367        O  0.25122621  0.85655843  0.55223548    -0.58500
C368        C  0.18864320  0.83347671  0.54768530     0.75300
C369        C  0.22180867  0.86149392  0.49702818     0.77700
Cd370      Cd  0.21713201  0.86515092  0.54012230     1.37500
O371        O  0.19877517  0.89767738  0.54984388    -0.57300
O372        O  0.20569806  0.86745114  0.50549774    -0.56100
C373        C  0.24670591  0.85809486  0.57073670     0.77600
O374        O  0.23618313  0.85665779  0.50859447    -0.58500
O375        O  0.22852290  0.89932300  0.53685071    -0.57000
O376        O  0.20689530  0.82974278  0.54336092    -0.56900
O377        O  0.22853986  0.86245736  0.57484620    -0.56100
O378        O  0.17269789  0.59224084  0.82192620    -0.57300
C379        C  0.20504737  0.58025166  0.87494119     0.75300
O380        O  0.22069226  0.54522561  0.82216689    -0.58500
C381        C  0.17571778  0.58951039  0.80323945     0.75300
C382        C  0.23641791  0.60914662  0.82525977     0.77700
Cd383      Cd  0.20586720  0.57886494  0.83195357     1.37500
O384        O  0.18914958  0.58506072  0.86554343    -0.57300
O385        O  0.21816771  0.61328755  0.82925076    -0.56100
C386        C  0.20520769  0.53535046  0.82750940     0.77600
O387        O  0.24080554  0.59051615  0.82343746    -0.58500
O388        O  0.22035117  0.57564903  0.86447261    -0.57000
O389        O  0.19292210  0.58278276  0.79806958    -0.56900
O390        O  0.19044117  0.54566342  0.83401514    -0.56100
O391        O  0.07623658  0.76276574  0.55687136    -0.57300
C392        C  0.02232422  0.73157065  0.55188798     0.75300
O393        O  0.07129673  0.71028427  0.51495236    -0.58500
C394        C  0.09486503  0.75930554  0.55412575     0.75300
C395        C  0.07480562  0.69511417  0.57340908     0.77700
Cd396      Cd  0.06530999  0.72848903  0.54701045     1.37500
O397        O  0.03307019  0.74613859  0.55793510    -0.57300
O398        O  0.06711522  0.71143918  0.58001854    -0.56100
C399        C  0.06776750  0.72531048  0.50380939     0.77600
O400        O  0.07896711  0.69461667  0.55481377    -0.58500
O401        O  0.03148517  0.71658418  0.54428250    -0.57000
O402        O  0.09968841  0.74142599  0.54922929    -0.56900
O403        O  0.06313266  0.74164800  0.51267218    -0.56100
O404        O  0.08240778  0.58409862  0.71565530    -0.57300
C405        C  0.02719660  0.57414004  0.68668046     0.75300
O406        O  0.07925648  0.59053988  0.64975902    -0.58500
C407        C  0.10090266  0.58216426  0.71100008     0.75300
C408        C  0.07599750  0.53063238  0.67669578     0.77700
Cd409      Cd  0.07022113  0.57375416  0.68223495     1.37500
O410        O  0.03803526  0.57820967  0.70180792    -0.57300
O411        O  0.07119117  0.53881042  0.69329669    -0.56100
C412        C  0.07554329  0.60824217  0.65633549     0.77600
O413        O  0.07880465  0.54255146  0.66205350    -0.58500
O414        O  0.03626455  0.57033143  0.67031206    -0.57000
O415        O  0.10483844  0.57637273  0.69321980    -0.56900
O416        O  0.06997410  0.60958460  0.67450943    -0.56100
O417        O  0.57277605  0.20435180  0.91314465    -0.57300
C418        C  0.56510984  0.22334889  0.98593438     0.75300
O419        O  0.57628269  0.25860113  0.94343721    -0.58500
C420        C  0.56797411  0.21911694  0.90172209     0.75300
C421        C  0.52105296  0.22369749  0.94232927     0.77700
Cd422      Cd  0.56331720  0.22511028  0.94365156     1.37500
O423        O  0.57095071  0.20770283  0.97601501    -0.57300
O424        O  0.53129119  0.20746315  0.94392996    -0.56100
C425        C  0.59468854  0.25310850  0.94393567     0.77600
O426        O  0.53068562  0.24020884  0.94135365    -0.58500
O427        O  0.55851991  0.23829485  0.97609881    -0.57000
O428        O  0.56157596  0.23518392  0.91005259    -0.56900
O429        O  0.59848126  0.23423570  0.94439912    -0.56100
O430        O  0.72142800  0.36541121  0.96825570    -0.57300
C431        C  0.70435955  0.37562406  0.89670911     0.75300
O432        O  0.66442365  0.36594441  0.94221404    -0.58500
C433        C  0.70877371  0.37297974  0.98083647     0.75300
C434        C  0.70248749  0.41780411  0.94107528     0.77700
Cd435      Cd  0.69923328  0.37584411  0.93936451     1.37500
O436        O  0.71844989  0.36791799  0.90733289    -0.57300
O437        O  0.71816492  0.40665546  0.94062581    -0.56100
C438        C  0.66827257  0.34714481  0.94116108     0.77600
O439        O  0.68540925  0.40916601  0.94070193    -0.58500
O440        O  0.68905104  0.38248876  0.90595916    -0.57000
O441        O  0.69285621  0.38080462  0.97384045    -0.56900
O442        O  0.68663510  0.34184791  0.93914119    -0.56100
O443        O  0.57249071  0.19696761  0.06098002    -0.57300
C444        C  0.56571916  0.22515903  0.00789570     0.75300
O445        O  0.53545679  0.25308134  0.06142638    -0.58500
C446        C  0.57233539  0.20050488  0.07970079     0.75300
C447        C  0.59895650  0.26004140  0.05418907     0.77700
Cd448      Cd  0.56534973  0.23193818  0.05063244     1.37500
O449        O  0.57142159  0.21109481  0.01940306    -0.57300
O450        O  0.60079243  0.24211924  0.04771006    -0.56100
C451        C  0.52247835  0.24012345  0.05609088     0.77600
O452        O  0.58134049  0.26528729  0.05968495    -0.58500
O453        O  0.56036502  0.24159218  0.01618647    -0.57000
O454        O  0.56956027  0.21872768  0.08496382    -0.56900
O455        O  0.52941104  0.22385574  0.04872590    -0.56100
O456        O  0.56659237  0.10572440  0.16678110    -0.57300
C457        C  0.55934527  0.05009564  0.19863449     0.75300
O458        O  0.56559433  0.10209339  0.23564438    -0.58500
C459        C  0.56581566  0.12427845  0.17168553     0.75300
C460        C  0.51260401  0.09779594  0.20218543     0.77700
Cd461      Cd  0.55606799  0.09342245  0.20056675     1.37500
O462        O  0.56642729  0.06033384  0.18418942    -0.57300
O463        O  0.52183174  0.09098431  0.18686665    -0.56100
C464        C  0.58440408  0.09969221  0.23295747     0.77600
O465        O  0.52352251  0.10312242  0.21688239    -0.58500
O466        O  0.55125180  0.05988058  0.21292019    -0.57000
O467        O  0.56122267  0.12816811  0.18979773    -0.56900
O468        O  0.58998668  0.09522760  0.21522957    -0.56100
O469        O  0.74888610  0.36964421  0.05294470    -0.57300
C470        C  0.71151227  0.37350530  0.00274150     0.75300
O471        O  0.67967130  0.36664345  0.05981855    -0.58500
C472        C  0.74659763  0.36839258  0.07182274     0.75300
C473        C  0.70987480  0.42048777  0.05248870     0.77700
Cd474      Cd  0.71293469  0.37688814  0.04602523     1.37500
O475        O  0.72622319  0.36548676  0.01187324    -0.57300
O476        O  0.72523026  0.41212936  0.04466379    -0.56100
C477        C  0.68160357  0.34795837  0.05593492     0.77600
O478        O  0.69577059  0.40872240  0.05764089    -0.58500
O479        O  0.69853652  0.38256026  0.01349651    -0.57000
O480        O  0.72871782  0.36997351  0.07840693    -0.56900
O481        O  0.69836100  0.34252674  0.04838177    -0.56100
O482        O  0.88591149  0.37880724  0.17638705    -0.57300
C483        C  0.82331283  0.37239638  0.16299619     0.75300
O484        O  0.84142412  0.37529856  0.22801517    -0.58500
C485        C  0.89502551  0.38282530  0.19264643     0.75300
C486        C  0.84629418  0.42809274  0.19610750     0.77700
Cd487      Cd  0.85181229  0.38450289  0.19329119     1.37500
O488        O  0.84202113  0.37250628  0.15898183    -0.57300
O489        O  0.85553775  0.41952405  0.18171244    -0.56100
C490        C  0.84532578  0.35660006  0.22621087     0.77600
O491        O  0.83886689  0.41646971  0.20923144    -0.58500
O492        O  0.81833234  0.37724389  0.18075953    -0.57000
O493        O  0.88420890  0.38658300  0.20788584    -0.56900
O494        O  0.85157059  0.35078934  0.20906563    -0.56100
O495        O  0.74101357  0.10724512  0.33180653    -0.57300
C496        C  0.71411304  0.05045761  0.33819008     0.75300
O497        O  0.68900409  0.10192916  0.37283447    -0.58500
C498        C  0.73562948  0.12554455  0.33394369     0.75300
C499        C  0.67689773  0.09748005  0.30999346     0.77700
Cd500      Cd  0.70748707  0.09328385  0.34087853     1.37500
O501        O  0.72744331  0.06208241  0.33103899    -0.57300
O502        O  0.69521383  0.09347345  0.30623423    -0.56100
C503        C  0.70328664  0.09618765  0.38413979     0.77600
O504        O  0.67240104  0.10011926  0.32839010    -0.58500
O505        O  0.69875003  0.05874161  0.34603599    -0.57000
O506        O  0.71735355  0.12862891  0.33865863    -0.56900
O507        O  0.71905423  0.08983040  0.37534384    -0.56100
O508        O  0.84469664  0.20199139  0.32789146    -0.57300
C509        C  0.89670255  0.23520236  0.33716243     0.75300
O510        O  0.84428057  0.27138658  0.32438768    -0.58500
C511        C  0.82581705  0.20448636  0.32977922     0.75300
C512        C  0.84790022  0.24175259  0.38133598     0.77700
Cd513      Cd  0.85336987  0.23709649  0.33807919     1.37500
O514        O  0.88691170  0.21943425  0.33261366    -0.57300
O515        O  0.85823544  0.22785238  0.37313449    -0.56100
C516        C  0.84736209  0.26643945  0.30616047     0.77600
O517        O  0.83955492  0.25414923  0.36944871    -0.58500
O518        O  0.88649266  0.25087893  0.34127970    -0.57000
O519        O  0.81993952  0.22203661  0.33481538    -0.56900
O520        O  0.85228614  0.24818646  0.30303276    -0.56100
O521        O  0.56674306  0.74315714  0.97991265    -0.57300
C522        C  0.55545704  0.73203933  0.90872972     0.75300
O523        O  0.56018041  0.68814666  0.94804698    -0.58500
C524        C  0.56271347  0.72837068  0.99150852     0.75300
C525        C  0.51158833  0.73054855  0.95437194     0.77700
Cd526      Cd  0.55329306  0.72400399  0.95025560     1.37500
O527        O  0.56521590  0.74364142  0.92060894    -0.57300
O528        O  0.52353917  0.74549620  0.95426399    -0.56100
C529        C  0.57902028  0.69057292  0.94542057     0.77600
O530        O  0.51931135  0.71299767  0.95280564    -0.58500
O531        O  0.54465286  0.71842397  0.91648015    -0.57000
O532        O  0.55513468  0.71272742  0.98364328    -0.56900
O533        O  0.58554452  0.70857059  0.94477637    -0.56100
O534        O  0.72229700  0.58729647  0.96551499    -0.57300
C535        C  0.70592542  0.58074412  0.89754542     0.75300
O536        O  0.67676168  0.54847750  0.94033785    -0.58500
C537        C  0.70996673  0.58203106  0.97927217     0.75300
C538        C  0.66902470  0.61148591  0.94002875     0.77700
Cd539      Cd  0.69672808  0.57909732  0.93911932     1.37500
O540        O  0.71938660  0.58665155  0.90986347    -0.57300
O541        O  0.68782281  0.61445141  0.93830559    -0.56100
C542        C  0.69218175  0.53700347  0.94058681     0.77600
O543        O  0.66319090  0.59333687  0.94162960    -0.58500
O544        O  0.68960596  0.57418249  0.90482056    -0.57000
O545        O  0.69278507  0.57592973  0.97392771    -0.56900
O546        O  0.70937124  0.54531943  0.93982931    -0.56100
O547        O  0.56652648  0.01642845  0.18555112    -0.57300
C548        C  0.56354666  0.94416041  0.19578491     0.75300
O549        O  0.56858541  0.98413067  0.24000244    -0.58500
C550        C  0.55993280  0.02795768  0.19962067     0.75300
C551        C  0.51574476  0.98337775  0.20525841     0.77700
Cd552      Cd  0.55794153  0.98550155  0.20561481     1.37500
O553        O  0.56927685  0.95710364  0.18278733    -0.57300
O554        O  0.52581599  0.98458234  0.18900085    -0.56100
C555        C  0.58723335  0.98441595  0.23558033     0.77600
O556        O  0.52548949  0.98339753  0.22165525    -0.58500
O557        O  0.55560663  0.95080022  0.21184531    -0.57000
O558        O  0.55323982  0.01960958  0.21533303    -0.56900
O559        O  0.59204160  0.98513674  0.21708809    -0.56100
O560        O  0.73222392  0.95518264  0.32766595    -0.57300
C561        C  0.71529242  0.02835818  0.33753215     0.75300
O562        O  0.67794689  0.98590989  0.32471719    -0.58500
C563        C  0.71738959  0.94393577  0.33270878     0.75300
C564        C  0.71291231  0.98240631  0.37852985     0.77700
Cd565      Cd  0.71170020  0.98600298  0.33680122     1.37500
O566        O  0.72990903  0.01823337  0.32974985    -0.57300
O567        O  0.72926479  0.98357299  0.36850401    -0.56100
C568        C  0.68291441  0.98714037  0.30628610     0.77600
O569        O  0.69641555  0.98344354  0.36892015    -0.58500
O570        O  0.70065808  0.01861805  0.34487804    -0.57000
O571        O  0.70129063  0.95253316  0.33853485    -0.56900
O572        O  0.70161757  0.98814036  0.30206011    -0.56100
O573        O  0.74896594  0.86728498  0.32876653    -0.57300
C574        C  0.71772776  0.92178557  0.33265378     0.75300
O575        O  0.68092821  0.86894091  0.32036579    -0.58500
C576        C  0.74496654  0.84862281  0.33002700     0.75300
C577        C  0.70817278  0.87427866  0.37865574     0.77700
Cd578      Cd  0.71406191  0.87860106  0.33523609     1.37500
O579        O  0.73266963  0.91103045  0.32718596    -0.57300
O580        O  0.72419712  0.88062014  0.37054255    -0.56100
C581        C  0.68613564  0.87175996  0.30221577     0.77600
O582        O  0.69413850  0.86945000  0.36665456    -0.58500
O583        O  0.70225693  0.91252988  0.33871415    -0.57000
O584        O  0.72661988  0.84406814  0.33255368    -0.56900
O585        O  0.70424838  0.87704430  0.29941895    -0.56100
O586        O  0.83509535  0.75666658  0.34155175    -0.57300
C587        C  0.88997107  0.72655698  0.34799002     0.75300
O588        O  0.83806560  0.70319733  0.38100609    -0.58500
C589        C  0.81650546  0.75233858  0.34129867     0.75300
C590        C  0.84399479  0.69227961  0.31826888     0.77700
Cd591      Cd  0.84703508  0.72237514  0.34977752     1.37500
O592        O  0.87905975  0.74076963  0.34129627    -0.57300
O593        O  0.84957537  0.71020254  0.31494896    -0.56100
C594        C  0.84250634  0.71759982  0.39284144     0.77600
O595        O  0.83885823  0.68832621  0.33622057    -0.58500
O596        O  0.88096717  0.71146948  0.35522360    -0.57000
O597        O  0.81208380  0.73406769  0.34463120    -0.56900
O598        O  0.84846777  0.73371302  0.38466258    -0.56100
O599        O  0.57680779  0.87030117  0.15749154    -0.57300
C600        C  0.56538215  0.92220372  0.19336950     0.75300
O601        O  0.53266295  0.86756822  0.20640363    -0.58500
C602        C  0.57626813  0.85137691  0.16037661     0.75300
C603        C  0.59469227  0.87015826  0.22408163     0.77700
Cd604      Cd  0.56594995  0.87882875  0.19229518     1.37500
O605        O  0.57431040  0.91347270  0.17878819    -0.57300
O606        O  0.60006222  0.87637260  0.20689995    -0.56100
C607        C  0.52280396  0.87263056  0.19088389     0.77600
O608        O  0.57593302  0.86726890  0.22651918    -0.58500
O609        O  0.55772389  0.91098542  0.20662712    -0.57000
O610        O  0.57222174  0.84568181  0.17807923    -0.56900
O611        O  0.53299150  0.87971425  0.17648418    -0.56100
O612        O  0.84430752  0.60214980  0.15480302    -0.57300
C613        C  0.89910516  0.59546459  0.18606666     0.75300
O614        O  0.84588631  0.60415104  0.22257595    -0.58500
C615        C  0.82581311  0.60148433  0.15967295     0.75300
C616        C  0.85350538  0.54865448  0.18853263     0.77700
Cd617      Cd  0.85629511  0.59242415  0.18843474     1.37500
O618        O  0.88882185  0.60233377  0.17154877    -0.57300
O619        O  0.86082845  0.55878875  0.17422818    -0.56100
C620        C  0.85086170  0.62243108  0.21978485     0.77600
O621        O  0.84687854  0.55878419  0.20347349    -0.58500
O622        O  0.88949392  0.58776543  0.20055890    -0.57000
O623        O  0.82183167  0.59759832  0.17786577    -0.56900
O624        O  0.85753754  0.62670349  0.20246707    -0.56100
O625        O  0.57702223  0.76024263  0.06747677    -0.57300
C626        C  0.56558019  0.72858811  0.01333585     0.75300
O627        O  0.57713351  0.69147493  0.06534289    -0.58500
C628        C  0.57436417  0.75671038  0.08602302     0.75300
C629        C  0.52141285  0.72263434  0.06066360     0.77700
Cd630      Cd  0.56528415  0.72609893  0.05636484     1.37500
O631        O  0.57017155  0.74420247  0.02343399    -0.57300
O632        O  0.52985932  0.73773252  0.05275552    -0.56100
C633        C  0.59560145  0.69432378  0.06124869     0.77600
O634        O  0.53321694  0.70905732  0.06722660    -0.58500
O635        O  0.56235696  0.71260575  0.02308695    -0.57000
O636        O  0.56843334  0.73913883  0.09043065    -0.56900
O637        O  0.60023251  0.71210085  0.05607415    -0.56100
O638        O  0.75240214  0.59551561  0.04960973    -0.57300
C639        C  0.71427753  0.58277125  0.00074566     0.75300
O640        O  0.70314272  0.55097854  0.05466905    -0.58500
C641        C  0.74981623  0.59667119  0.06851466     0.75300
C642        C  0.68808936  0.61608414  0.05070955     0.77700
Cd643      Cd  0.71760958  0.58419358  0.04332741     1.37500
O644        O  0.72981970  0.59090703  0.00824780    -0.57300
O645        O  0.70516106  0.61909965  0.04273021    -0.56100
C646        C  0.71928454  0.54103903  0.05133212     0.77600
O647        O  0.68449613  0.59803764  0.05603881    -0.58500
O648        O  0.70160252  0.57535714  0.01281152    -0.57000
O649        O  0.73234971  0.59268708  0.07516110    -0.56900
O650        O  0.73419236  0.55116862  0.04521494    -0.56100
O651        O  0.19208016  0.58332653  0.90905082    -0.57300
C652        C  0.20704857  0.58146826  0.98001054     0.75300
O653        O  0.23084246  0.54252927  0.93946803    -0.58500
C654        C  0.20654110  0.57935260  0.89686131     0.75300
C655        C  0.24434352  0.60377317  0.93730555     0.77700
Cd656      Cd  0.21419327  0.57475490  0.93840063     1.37500
O657        O  0.19271448  0.58541306  0.96784132    -0.57300
O658        O  0.22588580  0.60888797  0.93871607    -0.56100
C659        C  0.21474354  0.53230558  0.93860817     0.77600
O660        O  0.24852528  0.58502963  0.93639660    -0.58500
O661        O  0.22330228  0.57457625  0.97263119    -0.57000
O662        O  0.22320781  0.57392937  0.90427419    -0.56900
O663        O  0.19818578  0.54198599  0.93779083    -0.56100
O664        O  0.34632100  0.74103905  0.90761103    -0.57300
C665        C  0.34934050  0.72838781  0.98186291     0.75300
O666        O  0.33676464  0.69042358  0.93927500    -0.58500
C667        C  0.35237537  0.72564744  0.89745126     0.75300
C668        C  0.39323463  0.72166431  0.94526299     0.77700
Cd669      Cd  0.35152109  0.72262832  0.93995304     1.37500
O670        O  0.34421510  0.74331597  0.97076143    -0.57300
O671        O  0.38411263  0.73848117  0.94302346    -0.56100
C672        C  0.31863278  0.69674913  0.93961158     0.77600
O673        O  0.38286923  0.70560709  0.94389665    -0.58500
O674        O  0.35394736  0.71186652  0.97324109    -0.57000
O675        O  0.35804813  0.71022171  0.90713789    -0.56900
O676        O  0.31564067  0.71576257  0.94017624    -0.56100
O677        O  0.93269039  0.60255991  0.17312774    -0.57300
C678        C  0.00535225  0.59335224  0.18906375     0.75300
O679        O  0.96286562  0.60518977  0.22735887    -0.58500
C680        C  0.92114376  0.59581662  0.18700972     0.75300
C681        C  0.96088293  0.55110348  0.19127210     0.77700
Cd682      Cd  0.96300621  0.59313392  0.19354647     1.37500
O683        O  0.99487051  0.60062590  0.17466194    -0.57300
O684        O  0.96220350  0.56161751  0.17535844    -0.56100
C685        C  0.96318915  0.62377528  0.22268474     0.77600
O686        O  0.96084501  0.56038570  0.20807941    -0.58500
O687        O  0.99598361  0.58630625  0.20406679    -0.57000
O688        O  0.92933292  0.58877840  0.20264861    -0.56900
O689        O  0.96339298  0.62814765  0.20408681    -0.56100
O690        O  0.98213903  0.74501226  0.33773860    -0.57300
C691        C  0.91203516  0.72670033  0.34776296     0.75300
O692        O  0.95747163  0.68846654  0.33837493    -0.58500
C693        C  0.99522876  0.73293941  0.34515168     0.75300
C694        C  0.95572854  0.72675591  0.39161460     0.77700
Cd695      Cd  0.95436394  0.72279721  0.34978988     1.37500
O696        O  0.92266452  0.74152162  0.34164550    -0.57300
O697        O  0.95480368  0.74211959  0.38026615    -0.56100
C698        C  0.95731000  0.69325203  0.31987469     0.77600
O699        O  0.95595538  0.70939532  0.38327668    -0.58500
O700        O  0.92122705  0.71120969  0.35411955    -0.57000
O701        O  0.98889367  0.71750964  0.35434089    -0.56900
O702        O  0.95555865  0.71185143  0.31556434    -0.56100
O703        O  0.17293752  0.59903327  0.05395374    -0.57300
C704        C  0.20579662  0.58416106  0.00186933     0.75300
O705        O  0.24022872  0.59823936  0.05507011    -0.58500
C706        C  0.17540007  0.59661996  0.07271264     0.75300
C707        C  0.20442866  0.54234519  0.05099942     0.77700
Cd708      Cd  0.20627830  0.58560762  0.04495405     1.37500
O709        O  0.19015796  0.59037023  0.01109273    -0.57300
O710        O  0.18990413  0.55310809  0.04497124    -0.56100
C711        C  0.23584561  0.61684059  0.05317755     0.77600
O712        O  0.22063157  0.55166967  0.05510514    -0.58500
O713        O  0.22097721  0.57985860  0.01247586    -0.57000
O714        O  0.19229983  0.58969345  0.07835040    -0.56900
O715        O  0.21789602  0.62082107  0.04804493    -0.56100
O716        O  0.08257582  0.59957259  0.16112971    -0.57300
C717        C  0.02745011  0.59294159  0.18956387     0.75300
O718        O  0.07937247  0.56078591  0.21520866    -0.58500
C719        C  0.10103889  0.60005161  0.16595131     0.75300
C720        C  0.07417464  0.62430695  0.22410365     0.77700
Cd721      Cd  0.07044765  0.59163054  0.19516276     1.37500
O722        O  0.03867767  0.60006789  0.17590567    -0.57300
O723        O  0.06952217  0.62698340  0.20588685    -0.56100
C724        C  0.07643924  0.54849482  0.20080168     0.77600
O725        O  0.07795274  0.60623984  0.22917277    -0.58500
O726        O  0.03616352  0.58540133  0.20463554    -0.57000
O727        O  0.10510178  0.59703264  0.18427583    -0.56900
O728        O  0.07157890  0.55627947  0.18417446    -0.56100
O729        O  0.34472324  0.76122739  0.05708334    -0.57300
C730        C  0.35097663  0.72928377  0.00384171     0.75300
O731        O  0.39074274  0.71366645  0.05778931    -0.58500
C732        C  0.34710464  0.75852819  0.07579432     0.75300
C733        C  0.32871273  0.69381156  0.05430922     0.77700
Cd734      Cd  0.35660591  0.72715747  0.04678996     1.37500
O735        O  0.34478506  0.74390791  0.01463734    -0.57300
O736        O  0.32294494  0.71204484  0.05341400    -0.56100
C737        C  0.40066785  0.72835017  0.05066767     0.77600
O738        O  0.34759896  0.69091126  0.05289484    -0.58500
O739        O  0.35927375  0.71474861  0.01289418    -0.57000
O740        O  0.35295827  0.74108709  0.08102568    -0.56900
O741        O  0.39036691  0.74165212  0.04173295    -0.56100
O742        O  0.34787089  0.85603052  0.16159945    -0.57300
C743        C  0.35606453  0.91389765  0.18723808     0.75300
O744        O  0.34880454  0.86081156  0.22856083    -0.58500
C745        C  0.35182472  0.83791377  0.16633912     0.75300
C746        C  0.40260279  0.86819683  0.19942596     0.77700
Cd747      Cd  0.35933623  0.87081926  0.19421935     1.37500
O748        O  0.35099407  0.90178307  0.17334751    -0.57300
O749        O  0.39438811  0.87166227  0.18265070    -0.56100
C750        C  0.33015778  0.86400402  0.22597870     0.77600
O751        O  0.39074452  0.86556109  0.21415902    -0.58500
O752        O  0.36194232  0.90604988  0.20347644    -0.57000
O753        O  0.35880336  0.83525942  0.18379947    -0.56900
O754        O  0.32504399  0.87003488  0.20869182    -0.56100
O755        O  0.06741825  0.77105989  0.33108708    -0.57300
C756        C  0.01704932  0.73564426  0.34358064     0.75300
O757        O  0.07436133  0.70256760  0.33319853    -0.58500
C758        C  0.08636446  0.76835032  0.33018105     0.75300
C759        C  0.06803150  0.73709854  0.38464116     0.77700
Cd760      Cd  0.06031747  0.73633528  0.34223368     1.37500
O761        O  0.02550181  0.74905589  0.33300808    -0.57300
O762        O  0.06509252  0.75291464  0.37448418    -0.56100
C763        C  0.07012353  0.70392516  0.31468809     0.77600
O764        O  0.06860953  0.72056829  0.37491941    -0.58500
O765        O  0.02845820  0.72365669  0.35290231    -0.57000
O766        O  0.09281373  0.75075450  0.33400883    -0.56900
O767        O  0.06180170  0.72022799  0.30919683    -0.56100
O768        O  0.17450228  0.86203467  0.32487823    -0.57300
C769        C  0.20984481  0.91613805  0.33426805     0.75300
O770        O  0.22514551  0.86236027  0.36691030    -0.58500
C771        C  0.17888578  0.84333084  0.32498662     0.75300
C772        C  0.23792794  0.86667527  0.30333805     0.77700
Cd773      Cd  0.20873648  0.87297812  0.33468610     1.37500
O774        O  0.19384000  0.90764149  0.32817843    -0.57300
O775        O  0.22057967  0.87412438  0.30032790    -0.56100
C776        C  0.21021333  0.86794074  0.37765168     0.77600
O777        O  0.24192607  0.86146350  0.32125081    -0.58500
O778        O  0.22406397  0.90475645  0.33989286    -0.57000
O779        O  0.19701837  0.83874072  0.32879715    -0.56900
O780        O  0.19531427  0.87534993  0.36838801    -0.56100
O781        O  0.18550669  0.36634484  0.97002947    -0.57300
C782        C  0.20289586  0.36976972  0.89598096     0.75300
O783        O  0.21847667  0.40459814  0.93855028    -0.58500
C784        C  0.20027918  0.37297013  0.98050446     0.75300
C785        C  0.23295292  0.34019713  0.93995145     0.77700
Cd786      Cd  0.20497584  0.37162527  0.93842880     1.37500
O787        O  0.18799117  0.36263832  0.90595582    -0.57300
O788        O  0.21419461  0.33613927  0.93966039    -0.56100
C789        C  0.20138356  0.41344056  0.93840177     0.77600
O790        O  0.23804863  0.35868551  0.93973993    -0.58500
O791        O  0.21742326  0.37718692  0.90584878    -0.57000
O792        O  0.21619847  0.37809728  0.97127918    -0.56900
O793        O  0.18564676  0.40249093  0.93783293    -0.56100
O794        O  0.35373875  0.22164232  0.97784031    -0.57300
C795        C  0.35821370  0.23125681  0.90572355     0.75300
O796        O  0.34879419  0.27594085  0.94483329    -0.58500
C797        C  0.35836919  0.23667493  0.98903163     0.75300
C798        C  0.40300096  0.24257439  0.94518576     0.77700
Cd799      Cd  0.36093848  0.24194955  0.94688893     1.37500
O800        O  0.35087995  0.21880206  0.91839574    -0.57300
O801        O  0.39330372  0.22610421  0.94630185    -0.56100
C802        C  0.33033876  0.27090950  0.94500696     0.77600
O803        O  0.39290583  0.25895230  0.94539344    -0.58500
O804        O  0.36600776  0.24725160  0.91257948    -0.57000
O805        O  0.36389806  0.25272865  0.98045533    -0.56900
O806        O  0.32626972  0.25222094  0.94613943    -0.56100
O807        O  0.20145346  0.00869959  0.33237438    -0.57300
C808        C  0.21283032  0.93801132  0.33535751     0.75300
O809        O  0.25812722  0.97879522  0.32915360    -0.58500
C810        C  0.21499802  0.02086404  0.33853833     0.75300
C811        C  0.22579918  0.97707800  0.38238661     0.77700
Cd812      Cd  0.22363390  0.97902776  0.34034364     1.37500
O813        O  0.19954513  0.95127210  0.33091825    -0.57300
O814        O  0.20894460  0.97742820  0.37341291    -0.56100
C815        C  0.25364616  0.97855048  0.31062416     0.77600
O816        O  0.24163045  0.97768135  0.37162155    -0.58500
O817        O  0.22975249  0.94423855  0.34137381    -0.57000
O818        O  0.23127975  0.01332287  0.34489697    -0.56900
O819        O  0.23507528  0.97869989  0.30606869    -0.56100
O820        O  0.34966194  0.94565690  0.16988658    -0.57300
C821        C  0.35134780  0.02140035  0.18288264     0.75300
O822        O  0.34314544  0.97927474  0.22020548    -0.58500
C823        C  0.35554506  0.93604583  0.18550143     0.75300
C824        C  0.39799657  0.97953955  0.18606590     0.77700
Cd825      Cd  0.35600146  0.97887368  0.18724179     1.37500
O826        O  0.34572206  0.01013705  0.16822416    -0.57300
O827        O  0.38798543  0.97881428  0.16977095    -0.56100
C828        C  0.32478671  0.97793375  0.21494468     0.77600
O829        O  0.38818402  0.98035805  0.20251722    -0.58500
O830        O  0.35874315  0.01274320  0.19812281    -0.57000
O831        O  0.36131478  0.94638659  0.20047902    -0.56900
O832        O  0.32088251  0.97706249  0.19622249    -0.56100
O833        O  0.93072651  0.22136558  0.33454435    -0.57300
C834        C  0.00281342  0.23447890  0.34004199     0.75300
O835        O  0.96072780  0.27699619  0.33153478    -0.58500
C836        C  0.91877096  0.23612692  0.33840423     0.75300
C837        C  0.95946471  0.24199671  0.38604729     0.77700
Cd838      Cd  0.96074498  0.24274774  0.34373752     1.37500
O839        O  0.99052933  0.22112593  0.33359676    -0.57300
O840        O  0.95990194  0.22581725  0.37566218    -0.56100
C841        C  0.96216428  0.27150670  0.31320561     0.77600
O842        O  0.95962720  0.25863214  0.37659609    -0.58500
O843        O  0.99531794  0.25027823  0.34796760    -0.57000
O844        O  0.92656362  0.25259090  0.34404896    -0.56900
O845        O  0.96308134  0.25268677  0.30944983    -0.56100
O846        O  0.98755617  0.37964787  0.18302581    -0.57300
C847        C  0.91694691  0.38406065  0.19482762     0.75300
O848        O  0.95796317  0.38160936  0.23985992    -0.58500
C849        C  0.99990307  0.38663657  0.19596043     0.75300
C850        C  0.95579049  0.43261629  0.20585748     0.77700
Cd851      Cd  0.95802855  0.39021128  0.20474301     1.37500
O852        O  0.92984674  0.38061748  0.18089137    -0.57300
O853        O  0.95671843  0.42298068  0.18931399    -0.56100
C854        C  0.95855768  0.36270308  0.23668694     0.77600
O855        O  0.95574812  0.42236467  0.22189857    -0.58500
O856        O  0.92358697  0.38940891  0.21178129    -0.57000
O857        O  0.99254194  0.39498328  0.21148366    -0.56900
O858        O  0.95899017  0.35669538  0.21850918    -0.56100
O859        O  0.34499692  0.20808456  0.06644179    -0.57300
C860        C  0.35772626  0.23657855  0.01105873     0.75300
O861        O  0.34740926  0.27541261  0.06365748    -0.58500
C862        C  0.34667972  0.21251347  0.08495098     0.75300
C863        C  0.40171457  0.23836426  0.05718101     0.77700
Cd864      Cd  0.35833560  0.24038141  0.05402893     1.37500
O865        O  0.35107882  0.22204367  0.02147888    -0.57300
O866        O  0.39066794  0.22366124  0.05226973    -0.56100
C867        C  0.32915655  0.27282416  0.05854331     0.77600
O868        O  0.39263007  0.25473903  0.06170771    -0.58500
O869        O  0.36395261  0.25191789  0.02053553    -0.57000
O870        O  0.35300984  0.23007941  0.08904070    -0.56900
O871        O  0.32473056  0.25543210  0.05192164    -0.56100
O872        O  0.33896843  0.09915637  0.15410730    -0.57300
C873        C  0.34997208  0.04362000  0.18320170     0.75300
O874        O  0.38248240  0.09723221  0.20359472    -0.58500
C875        C  0.34133727  0.11781078  0.15784903     0.75300
C876        C  0.31938444  0.09240730  0.21848234     0.77700
Cd877      Cd  0.34991483  0.08720183  0.18738636     1.37500
O878        O  0.34233963  0.05416420  0.16927356    -0.57300
O879        O  0.31545348  0.08744876  0.20051042    -0.56100
C880        C  0.39305618  0.09271702  0.18821583     0.77600
O881        O  0.33781475  0.09564154  0.22237544    -0.58500
O882        O  0.35678066  0.05317464  0.19820105    -0.57000
O883        O  0.34657012  0.12234471  0.17559824    -0.56900
O884        O  0.38357556  0.08610971  0.17311992    -0.56100
O885        O  0.16765936  0.37075945  0.05441980    -0.57300
C886        C  0.19993625  0.37487219  0.00247407     0.75300
O887        O  0.22182409  0.40888409  0.05720813    -0.58500
C888        C  0.17073923  0.36895702  0.07308791     0.75300
C889        C  0.23409430  0.34764576  0.05115764     0.77700
Cd890      Cd  0.20306010  0.37829567  0.04552388     1.37500
O891        O  0.18526001  0.36940032  0.01334265    -0.57300
O892        O  0.21696078  0.34395539  0.04372234    -0.56100
C893        C  0.20832525  0.42149241  0.05224953     0.77600
O894        O  0.23698673  0.36572241  0.05680185    -0.58500
O895        O  0.21503221  0.38214006  0.01147086    -0.57000
O896        O  0.18885292  0.37055172  0.07878282    -0.56900
O897        O  0.19261108  0.41412316  0.04446937    -0.56100
O898        O  0.07579583  0.37027430  0.16159857    -0.57300
C899        C  0.02190798  0.38537681  0.19418163     0.75300
O900        O  0.07637236  0.37407307  0.22911080    -0.58500
C901        C  0.09445163  0.37211071  0.16540126     0.75300
C902        C  0.07167323  0.42776623  0.19341278     0.77700
Cd903      Cd  0.06513898  0.38440416  0.19488810     1.37500
O904        O  0.03117903  0.37685297  0.17968335    -0.57300
O905        O  0.06549558  0.41741509  0.17863517    -0.56100
C906        C  0.07194284  0.35554214  0.22707044     0.77600
O907        O  0.07549985  0.41801304  0.20934684    -0.58500
O908        O  0.03257747  0.39290491  0.20799465    -0.57000
O909        O  0.09893573  0.37875772  0.18268156    -0.56900
O910        O  0.06469681  0.35044730  0.21020826    -0.56100
O911        O  0.19719372  0.05226389  0.33329490    -0.57300
C912        C  0.17833267  0.11228299  0.33311865     0.75300
O913        O  0.22800989  0.10044798  0.37332081    -0.58500
C914        C  0.21286212  0.04286466  0.33890129     0.75300
C915        C  0.24355687  0.09430397  0.31255864     0.77700
Cd916      Cd  0.21219696  0.08612395  0.34207269     1.37500
O917        O  0.17641841  0.09324613  0.33285476    -0.57300
O918        O  0.22588844  0.08920790  0.30755894    -0.56100
C919        C  0.21633115  0.09144615  0.38541487     0.77600
O920        O  0.24657260  0.09654414  0.33123844    -0.58500
O921        O  0.19577619  0.11886164  0.33703448    -0.57000
O922        O  0.22729930  0.05340879  0.34534096    -0.56900
O923        O  0.20289638  0.08057777  0.37744305    -0.56100
O924        O  0.08086871  0.19895948  0.32987060    -0.57300
C925        C  0.02491681  0.23279982  0.33870638     0.75300
O926        O  0.07736338  0.25355040  0.36849922    -0.58500
C927        C  0.09938416  0.20377854  0.32974668     0.75300
C928        C  0.07281847  0.26351366  0.30500584     0.77700
Cd929      Cd  0.06845083  0.23424330  0.33719288     1.37500
O930        O  0.03433035  0.21871661  0.32953596    -0.57300
O931        O  0.06591959  0.24589855  0.30235684    -0.56100
C932        C  0.07443626  0.23857074  0.37999031     0.77600
O933        O  0.07851344  0.26775194  0.32274070    -0.58500
O934        O  0.03554314  0.24635194  0.34679435    -0.57000
O935        O  0.10312433  0.22238699  0.33207276    -0.56900
O936        O  0.06952256  0.22217895  0.37149827    -0.56100
C937        C  0.16119259  0.12630222  0.32960524    -0.04800
C938        C  0.14130394  0.11922810  0.32789319    -0.04700
C939        C  0.12509453  0.13286274  0.32641960    -0.22800
C940        C  0.12849970  0.15380746  0.32671020     0.19400
C941        C  0.14852850  0.16093200  0.32772954     0.16600
C942        C  0.16464885  0.14720886  0.32904980    -0.17900
C943        C  0.15216055  0.18173134  0.32805499    -0.19700
C944        C  0.13611780  0.19544027  0.32809506    -0.12300
C945        C  0.11603213  0.18872269  0.32770311     0.04400
C946        C  0.11231841  0.16777191  0.32661697    -0.24400
H947        H  0.13823312  0.10318016  0.32820298     0.09500
H948        H  0.10988709  0.12703943  0.32553010     0.13100
H949        H  0.17990663  0.15289080  0.33021846     0.13000
H950        H  0.16743540  0.18742684  0.32875502     0.12800
H951        H  0.13949004  0.21141361  0.32888358     0.13300
H952        H  0.09693228  0.16234885  0.32630906     0.15300
C953        C  0.07469893  0.34064896  0.24352962    -0.04800
C954        C  0.08035955  0.34702789  0.26290075    -0.04700
C955        C  0.08184361  0.33318710  0.27870678    -0.22800
C956        C  0.07770459  0.31264433  0.27548529     0.19400
C957        C  0.07241016  0.30599455  0.25597000     0.16600
C958        C  0.07099748  0.31997238  0.24015810    -0.17900
C959        C  0.06821075  0.28551882  0.25266457    -0.19700
C960        C  0.06875284  0.27183582  0.26858108    -0.12300
C961        C  0.07365443  0.27822211  0.28817287     0.04400
C962        C  0.07838842  0.29871056  0.29146237    -0.24400
H963        H  0.08331497  0.36282414  0.26593399     0.09500
H964        H  0.08596681  0.33861533  0.29353234     0.13100
H965        H  0.06669515  0.31477796  0.22529789     0.13000
H966        H  0.06418767  0.28011735  0.23780719     0.12800
H967        H  0.06508990  0.25618665  0.26555048     0.13300
H968        H  0.08213901  0.30389245  0.30648067     0.15300
C969        C  0.15405071  0.36604853  0.08760001    -0.04800
C970        C  0.13393716  0.36508493  0.08105726    -0.04700
C971        C  0.11805343  0.36449779  0.09498179    -0.22800
C972        C  0.12202382  0.36500012  0.11568781     0.19400
C973        C  0.14225527  0.36539634  0.12233402     0.16600
C974        C  0.15807239  0.36576487  0.10830373    -0.17900
C975        C  0.14638961  0.36613303  0.14293242    -0.19700
C976        C  0.13066909  0.36732606  0.15684817    -0.12300
C977        C  0.11048582  0.36769773  0.15049028     0.04400
C978        C  0.10619866  0.36592448  0.12985276    -0.24400
H979        H  0.13045220  0.36528770  0.06516389     0.09500
H980        H  0.10267324  0.36417787  0.08955708     0.13100
H981        H  0.17350709  0.36655850  0.11355285     0.13000
H982        H  0.16180158  0.36638272  0.14827546     0.12800
H983        H  0.13436788  0.36855380  0.17265711     0.13300
H984        H  0.09068568  0.36628584  0.12478407     0.15300
C985        C  0.25987772  0.09679671  0.29740417    -0.04800
C986        C  0.27981096  0.10071401  0.30338428    -0.04700
C987        C  0.29548292  0.10133615  0.28917562    -0.22800
C988        C  0.29153557  0.09800841  0.26869287     0.19400
C989        C  0.27146315  0.09452659  0.26252255     0.16600
C990        C  0.25582433  0.09403484  0.27683672    -0.17900
C991        C  0.26736502  0.09113589  0.24215278    -0.19700
C992        C  0.28298512  0.09079319  0.22802637    -0.12300
C993        C  0.30309528  0.09391709  0.23386800     0.04400
C994        C  0.30726497  0.09773310  0.25431297    -0.24400
H995        H  0.28336919  0.10288629  0.31912603     0.09500
H996        H  0.31073322  0.10408599  0.29425521     0.13100
H997        H  0.24054080  0.09101143  0.27197606     0.13000
H998        H  0.25206847  0.08847002  0.23714964     0.12800
H999        H  0.27928180  0.08785447  0.21243918     0.13300
H1000       H  0.32269054  0.10012451  0.25906350     0.15300
C1001       C  0.24974321  0.33156708  0.05269291    -0.04800
C1002       C  0.24522833  0.31192878  0.04598386    -0.04700
C1003       C  0.25973592  0.29661065  0.04640168    -0.22800
C1004       C  0.27918909  0.30056720  0.05343910     0.19400
C1005       C  0.28405490  0.32015435  0.06039715     0.16600
C1006       C  0.26925040  0.33557005  0.06007135    -0.17900
C1007       C  0.30371705  0.32394456  0.06723097    -0.19700
C1008       C  0.31840184  0.30857579  0.06687914    -0.12300
C1009       C  0.31366501  0.28910706  0.05981227     0.04400
C1010       C  0.29390085  0.28524809  0.05329744    -0.24400
H1011       H  0.23041618  0.30838018  0.04019301     0.09500
H1012       H  0.25577834  0.28168132  0.04098962     0.13100
H1013       H  0.27298416  0.35065152  0.06523397     0.13000
H1014       H  0.30780351  0.33884178  0.07263138     0.12800
H1015       H  0.33350192  0.31196693  0.07197560     0.13300
H1016       H  0.28998335  0.27033611  0.04778398     0.15300
C1017       C  0.33899729  0.13337836  0.14209990    -0.04800
C1018       C  0.33802240  0.12755419  0.12177551    -0.04700
C1019       C  0.33796465  0.14202591  0.10658072    -0.22800
C1020       C  0.33888829  0.16263225  0.11140912     0.19400
C1021       C  0.33923336  0.16876109  0.13181209     0.16600
C1022       C  0.33924422  0.15409887  0.14704099    -0.17900
C1023       C  0.34028525  0.18940939  0.13657118    -0.19700
C1024       C  0.34196216  0.20373994  0.12128003    -0.12300
C1025       C  0.34235924  0.19770331  0.10096627     0.04400
C1026       C  0.34023221  0.17713145  0.09614852    -0.24400
H1027       H  0.33792898  0.11172468  0.11756468     0.09500
H1028       H  0.33769680  0.13706617  0.09102506     0.13100
H1029       H  0.34000215  0.15879353  0.16266794     0.13000
H1030       H  0.34042080  0.19442996  0.15211249     0.12800
H1031       H  0.34343565  0.21952427  0.12536979     0.13300
H1032       H  0.34054317  0.17228951  0.08054455     0.15300
C1033       C  0.95879419  0.34834482  0.25337120    -0.04800
C1034       C  0.95682823  0.35517709  0.27332932    -0.04700
C1035       C  0.95718172  0.34147568  0.28916483    -0.22800
C1036       C  0.95964683  0.32079977  0.28521644     0.19400
C1037       C  0.96172580  0.31387841  0.26514344     0.16600
C1038       C  0.96115303  0.32766483  0.24937464    -0.17900
C1039       C  0.96441902  0.29327521  0.26113289    -0.19700
C1040       C  0.96485450  0.27955600  0.27688183    -0.12300
C1041       C  0.96251066  0.28623530  0.29684550     0.04400
C1042       C  0.96003443  0.30691189  0.30096540    -0.24400
H1043       H  0.95497997  0.37111207  0.27669956     0.09500
H1044       H  0.95558759  0.34703566  0.30445381     0.13100
H1045       H  0.96271735  0.32228572  0.23400473     0.13000
H1046       H  0.96613397  0.28776987  0.24583444     0.12800
H1047       H  0.96687076  0.26366817  0.27339807     0.13300
H1048       H  0.95824904  0.31217307  0.31634838     0.15300
C1049       C  0.26931326  0.97804816  0.29506503    -0.04800
C1050       C  0.28973976  0.97722162  0.30045915    -0.04700
C1051       C  0.30465021  0.97677890  0.28568411    -0.22800
C1052       C  0.29927841  0.97716628  0.26536324     0.19400
C1053       C  0.27874767  0.97786819  0.25979406     0.16600
C1054       C  0.26388406  0.97830659  0.27470416    -0.17900
C1055       C  0.27344658  0.97818748  0.23941960    -0.19700
C1056       C  0.28843835  0.97798538  0.22465808    -0.12300
C1057       C  0.30883325  0.97752317  0.23016784     0.04400
C1058       C  0.31414784  0.97698511  0.25053235    -0.24400
H1059       H  0.29420113  0.97693334  0.31610520     0.09500
H1060       H  0.32033915  0.97619677  0.29013512     0.13100
H1061       H  0.24813240  0.97890305  0.27044834     0.13000
H1062       H  0.25776855  0.97869168  0.23492953     0.12800
H1063       H  0.28409554  0.97838978  0.20898312     0.13300
H1064       H  0.32987677  0.97653035  0.25489771     0.15300
C1065       C  0.24846129  0.32435274  0.94045668    -0.04800
C1066       C  0.24336226  0.30379485  0.94021685    -0.04700
C1067       C  0.25847969  0.28904246  0.94083037    -0.22800
C1068       C  0.27879259  0.29475142  0.94177549     0.19400
C1069       C  0.28392381  0.31543858  0.94185792     0.16600
C1070       C  0.26877531  0.33002617  0.94113550    -0.17900
C1071       C  0.30413293  0.32129408  0.94283221    -0.19700
C1072       C  0.31924856  0.30672578  0.94386905    -0.12300
C1073       C  0.31433064  0.28613906  0.94388940     0.04400
C1074       C  0.29407448  0.28019342  0.94277965    -0.24400
H1075       H  0.22774241  0.29914909  0.93959731     0.09500
H1076       H  0.25430623  0.27323964  0.94069485     0.13100
H1077       H  0.27287120  0.34586191  0.94125237     0.13000
H1078       H  0.30823326  0.33711857  0.94289611     0.12800
H1079       H  0.33479186  0.31158925  0.94471535     0.13300
H1080       H  0.29019779  0.26430355  0.94273667     0.15300
C1081       C  0.16363693  0.82746888  0.32174002    -0.04800
C1082       C  0.16976892  0.80727458  0.31894660    -0.04700
C1083       C  0.15559375  0.79178122  0.31839336    -0.22800
C1084       C  0.13504936  0.79619431  0.32088742     0.19400
C1085       C  0.12862723  0.81650402  0.32298751     0.16600
C1086       C  0.14295924  0.83204444  0.32318645    -0.17900
C1087       C  0.10805607  0.82083563  0.32566769    -0.19700
C1088       C  0.09408512  0.80515631  0.32707628    -0.12300
C1089       C  0.10047749  0.78492331  0.32580916     0.04400
C1090       C  0.12093792  0.78057715  0.32217532    -0.24400
H1091       H  0.18561356  0.80338891  0.31768501     0.09500
H1092       H  0.16075656  0.77630290  0.31666542     0.13100
H1093       H  0.13808652  0.84755760  0.32543410     0.13000
H1094       H  0.10285345  0.83630978  0.32728010     0.12800
H1095       H  0.07839735  0.80884554  0.32992934     0.13300
H1096       H  0.12601364  0.76500558  0.32109746     0.15300
C1097       C  0.25263161  0.86472853  0.28663481    -0.04800
C1098       C  0.24651474  0.86939786  0.26697963    -0.04700
C1099       C  0.26031849  0.86921236  0.25111882    -0.22800
C1100       C  0.28058634  0.86445553  0.25458555     0.19400
C1101       C  0.28691587  0.85921685  0.27416736     0.16600
C1102       C  0.27285917  0.85928383  0.29009973    -0.17900
C1103       C  0.30728048  0.85450379  0.27749222    -0.19700
C1104       C  0.32129057  0.85557117  0.26171731    -0.12300
C1105       C  0.31518183  0.86131902  0.24233605     0.04400
C1106       C  0.29468625  0.86537229  0.23884181    -0.24400
H1107       H  0.23102088  0.87353882  0.26386420     0.09500
H1108       H  0.25519944  0.87317684  0.23619365     0.13100
H1109       H  0.27775978  0.85566987  0.30519746     0.13000
H1110       H  0.31244182  0.85036396  0.29235794     0.12800
H1111       H  0.33698736  0.85227241  0.26477981     0.13300
H1112       H  0.28974748  0.86973839  0.22395868     0.15300
C1113       C  0.34900078  0.82068684  0.15227193    -0.04800
C1114       C  0.35303770  0.80088635  0.15873920    -0.04700
C1115       C  0.35206038  0.78459549  0.14533390    -0.22800
C1116       C  0.34722070  0.78777983  0.12510625     0.19400
C1117       C  0.34252970  0.80751305  0.11850775     0.16600
C1118       C  0.34328293  0.82383200  0.13216669    -0.17900
C1119       C  0.33786752  0.81065485  0.09820173    -0.19700
C1120       C  0.33869237  0.79458616  0.08442611    -0.12300
C1121       C  0.34399726  0.77503069  0.09071573     0.04400
C1122       C  0.34774342  0.77167467  0.11124032    -0.24400
H1123       H  0.35735125  0.79799896  0.17414899     0.09500
H1124       H  0.35561470  0.76956567  0.15068539     0.13100
H1125       H  0.34009702  0.83900663  0.12698901     0.13000
H1126       H  0.33414552  0.82564161  0.09285787     0.12800
H1127       H  0.33568242  0.79758371  0.06873012     0.13300
H1128       H  0.35181546  0.75667261  0.11632777     0.15300
C1129       C  0.07796884  0.52620066  0.20304657    -0.04800
C1130       C  0.08099362  0.51722462  0.22192342    -0.04700
C1131       C  0.08109116  0.49610910  0.22389485    -0.22800
C1132       C  0.07808688  0.48357927  0.20703417     0.19400
C1133       C  0.07523301  0.49253179  0.18800698     0.16600
C1134       C  0.07530879  0.51364054  0.18613846    -0.17900
C1135       C  0.07195190  0.48026272  0.17112728    -0.19700
C1136       C  0.07116809  0.45930864  0.17304142    -0.12300
C1137       C  0.07380253  0.45005854  0.19184371     0.04400
C1138       C  0.07750515  0.46233640  0.20883333    -0.24400
H1139       H  0.08296631  0.52653093  0.23521283     0.09500
H1140       H  0.08324740  0.48959283  0.23864629     0.13100
H1141       H  0.07291201  0.52029858  0.17147710     0.13000
H1142       H  0.06971048  0.48689368  0.15643706     0.12800
H1143       H  0.06830363  0.45030808  0.15970895     0.13300
H1144       H  0.07945895  0.45543595  0.22344437     0.15300
C1145       C  0.07437835  0.64146114  0.23855571    -0.04800
C1146       C  0.06690687  0.66037170  0.23246795    -0.04700
C1147       C  0.06536315  0.67641889  0.24605979    -0.22800
C1148       C  0.07129957  0.67394174  0.26605850     0.19400
C1149       C  0.07934624  0.65521878  0.27237966     0.16600
C1150       C  0.08087979  0.63904814  0.25855156    -0.17900
C1151       C  0.08523028  0.65294461  0.29251535    -0.19700
C1152       C  0.08263252  0.66887771  0.30629890    -0.12300
C1153       C  0.07420024  0.68736099  0.30014384     0.04400
C1154       C  0.06887039  0.68981999  0.27989118    -0.24400
H1155       H  0.06176820  0.66267457  0.21721222     0.09500
H1156       H  0.05919011  0.69069242  0.24098808     0.13100
H1157       H  0.08670967  0.62456400  0.26342635     0.13000
H1158       H  0.09150862  0.63875821  0.29767414     0.12800
H1159       H  0.08692147  0.66663268  0.32182410     0.13300
H1160       H  0.06240758  0.70400787  0.27491380     0.15300
C1161       C  0.21074608  0.44363588  0.05496117    -0.04800
C1162       C  0.22941217  0.45195354  0.06046846    -0.04700
C1163       C  0.23193428  0.47296088  0.06157875    -0.22800
C1164       C  0.21581131  0.48605296  0.05725376     0.19400
C1165       C  0.19684375  0.47775496  0.05230580     0.16600
C1166       C  0.19443602  0.45671496  0.05123329    -0.17900
C1167       C  0.18063509  0.49061770  0.04804778    -0.19700
C1168       C  0.18324781  0.51149594  0.04813351    -0.12300
C1169       C  0.20210724  0.52008843  0.05253638     0.04400
C1170       C  0.21835066  0.50722508  0.05737643    -0.24400
H1171       H  0.24220314  0.44221564  0.06348703     0.09500
H1172       H  0.24657971  0.47895780  0.06550338     0.13100
H1173       H  0.17990489  0.45053407  0.04712445     0.13000
H1174       H  0.16597460  0.48452416  0.04431473     0.12800
H1175       H  0.17043280  0.52095117  0.04441647     0.13300
H1176       H  0.23296459  0.51361412  0.06078976     0.15300
C1177       C  0.11714104  0.60317993  0.15094841    -0.04800
C1178       C  0.13740215  0.60344274  0.15703715    -0.04700
C1179       C  0.15289996  0.60378176  0.14281618    -0.22800
C1180       C  0.14837563  0.60371915  0.12227149     0.19400
C1181       C  0.12804980  0.60446137  0.11597161     0.16600
C1182       C  0.11254028  0.60437564  0.13037521    -0.17900
C1183       C  0.12360027  0.60437084  0.09537093    -0.19700
C1184       C  0.13911679  0.60263481  0.08117087    -0.12300
C1185       C  0.15926354  0.60098945  0.08738848     0.04400
C1186       C  0.16382456  0.60206045  0.10795494    -0.24400
H1187       H  0.14130829  0.60273219  0.17281503     0.09500
H1188       H  0.16840898  0.60339396  0.14787780     0.13100
H1189       H  0.09695183  0.60430596  0.12553347     0.13000
H1190       H  0.10811693  0.60501038  0.09026718     0.12800
H1191       H  0.13530205  0.60183018  0.06536715     0.13300
H1192       H  0.17936275  0.60094769  0.11286444     0.15300
C1193       C  0.25088501  0.63315679  0.05619485    -0.04800
C1194       C  0.24447107  0.65323786  0.05929422    -0.04700
C1195       C  0.25847386  0.66894281  0.06071165    -0.22800
C1196       C  0.27920010  0.66495452  0.05871286     0.19400
C1197       C  0.28586334  0.64481206  0.05587377     0.16600
C1198       C  0.27169710  0.62903351  0.05484453    -0.17900
C1199       C  0.30656869  0.64086843  0.05361268    -0.19700
C1200       C  0.32050053  0.65671935  0.05372075    -0.12300
C1201       C  0.31406611  0.67687968  0.05613548     0.04400
C1202       C  0.29331325  0.68080863  0.05893619    -0.24400
H1203       H  0.22855079  0.65683641  0.06045406     0.09500
H1204       H  0.25305682  0.68426872  0.06294645     0.13100
H1205       H  0.27683628  0.61365228  0.05229410     0.13000
H1206       H  0.31197562  0.62553625  0.05138121     0.12800
H1207       H  0.33631715  0.65321884  0.05143324     0.13300
H1208       H  0.28807259  0.69624962  0.06078809     0.15300
C1209       C  0.95507537  0.45474285  0.20639390    -0.04800
C1210       C  0.95187562  0.46508495  0.22464187    -0.04700
C1211       C  0.95181876  0.48613208  0.22519229    -0.22800
C1212       C  0.95513135  0.49705954  0.20752452     0.19400
C1213       C  0.95819518  0.48673342  0.18908259     0.16600
C1214       C  0.95805693  0.46565066  0.18863157    -0.17900
C1215       C  0.96159997  0.49765368  0.17143099    -0.19700
C1216       C  0.96224093  0.51868339  0.17208337    -0.12300
C1217       C  0.95951259  0.52902021  0.19039420     0.04400
C1218       C  0.95573787  0.51813289  0.20804018    -0.24400
H1219       H  0.94949628  0.45690429  0.23849948     0.09500
H1220       H  0.94941386  0.49384257  0.23943384     0.13100
H1221       H  0.96060157  0.45775402  0.17450311     0.13000
H1222       H  0.96395529  0.48993783  0.15718579     0.12800
H1223       H  0.96512672  0.52684041  0.15831026     0.13300
H1224       H  0.95347403  0.52602417  0.22221730     0.15300
C1225       C  0.96313537  0.63948354  0.23832954    -0.04800
C1226       C  0.96271816  0.66003992  0.23325039    -0.04700
C1227       C  0.96184754  0.67480006  0.24830020    -0.22800
C1228       C  0.96132215  0.66913036  0.26856842     0.19400
C1229       C  0.96204062  0.64846344  0.27373538     0.16600
C1230       C  0.96304614  0.63382055  0.25860867    -0.17900
C1231       C  0.96145567  0.64271571  0.29394877    -0.19700
C1232       C  0.95996458  0.65735018  0.30899761    -0.12300
C1233       C  0.95908515  0.67789696  0.30401163     0.04400
C1234       C  0.95987858  0.68373331  0.28376198    -0.24400
H1235       H  0.96284440  0.66469214  0.21766462     0.09500
H1236       H  0.96136103  0.69058475  0.24410192     0.13100
H1237       H  0.96345483  0.61798440  0.26266391     0.13000
H1238       H  0.96199844  0.62692026  0.29810383     0.12800
H1239       H  0.95939649  0.65257127  0.32453741     0.13300
H1240       H  0.95926473  0.69958938  0.27980611     0.15300
C1241       C  0.21537129  0.51016439  0.93855295    -0.04800
C1242       C  0.23399555  0.50006828  0.93709060    -0.04700
C1243       C  0.23483648  0.47907781  0.93701982    -0.22800
C1244       C  0.21705328  0.46789590  0.93834273     0.19400
C1245       C  0.19820181  0.47788148  0.93982791     0.16600
C1246       C  0.19747962  0.49900514  0.93994428    -0.17900
C1247       C  0.18044230  0.46654640  0.94102061    -0.19700
C1248       C  0.18138153  0.44547640  0.94050995    -0.12300
C1249       C  0.20009278  0.43554816  0.93894630     0.04400
C1250       C  0.21786629  0.44686081  0.93802241    -0.24400
H1251       H  0.24795357  0.50840631  0.93592621     0.09500
H1252       H  0.24937763  0.47159727  0.93583343     0.13100
H1253       H  0.18304907  0.50671806  0.94110243     0.13000
H1254       H  0.16586927  0.47395660  0.94221395     0.12800
H1255       H  0.16750688  0.43696740  0.94135934     0.13300
H1256       H  0.23238770  0.43931626  0.93685888     0.15300
C1257       C  0.30198648  0.68231458  0.93933356    -0.04800
C1258       C  0.28190248  0.68862578  0.94200643    -0.04700
C1259       C  0.26638345  0.67445010  0.94194221    -0.22800
C1260       C  0.27085669  0.65387801  0.93921281     0.19400
C1261       C  0.29107643  0.64755402  0.93649521     0.16600
C1262       C  0.30642289  0.66177668  0.93652433    -0.17900
C1263       C  0.29572620  0.62706892  0.93391010    -0.19700
C1264       C  0.28042556  0.61282905  0.93412186    -0.12300
C1265       C  0.26029375  0.61891900  0.93682363     0.04400
C1266       C  0.25553845  0.63948131  0.93927321    -0.24400
H1267       H  0.27823303  0.70444306  0.94425516     0.09500
H1268       H  0.25095956  0.67953452  0.94409689     0.13100
H1269       H  0.32188918  0.65677385  0.93439743     0.13000
H1270       H  0.31118565  0.62205968  0.93183099     0.12800
H1271       H  0.28437094  0.59703262  0.93219189     0.13300
H1272       H  0.24000448  0.64425920  0.94139921     0.15300
C1273       C  0.49899854  0.72092137  0.06167593    -0.04800
C1274       C  0.48980289  0.70303848  0.06828929    -0.04700
C1275       C  0.46874790  0.70095507  0.06797538    -0.22800
C1276       C  0.45638451  0.71672608  0.06104776     0.19400
C1277       C  0.46543872  0.73495484  0.05482954     0.16600
C1278       C  0.48658505  0.73694461  0.05520215    -0.17900
C1279       C  0.45321241  0.75079839  0.04799017    -0.19700
C1280       C  0.43230105  0.74848940  0.04683412    -0.12300
C1281       C  0.42299864  0.73033750  0.05259022     0.04400
C1282       C  0.43520505  0.71452985  0.05995831    -0.24400
H1283       H  0.49893052  0.69047088  0.07337505     0.09500
H1284       H  0.46215297  0.68687891  0.07290243     0.13100
H1285       H  0.49338357  0.75088212  0.05012306     0.13000
H1286       H  0.45984670  0.76494118  0.04329016     0.12800
H1287       H  0.42336471  0.76101080  0.04131632     0.13300
H1288       H  0.42829821  0.70047736  0.06453838     0.15300
C1289       C  0.61078582  0.67764077  0.06168612    -0.04800
C1290       C  0.60472173  0.65764217  0.06526030    -0.04700
C1291       C  0.61864350  0.64165638  0.06430279    -0.22800
C1292       C  0.63897043  0.64528256  0.05970765     0.19400
C1293       C  0.64529180  0.66531729  0.05613542     0.16600
C1294       C  0.63123157  0.68133804  0.05724589    -0.17900
C1295       C  0.66551877  0.66895063  0.05118950    -0.19700
C1296       C  0.67930453  0.65293469  0.04965925    -0.12300
C1297       C  0.67327611  0.63290800  0.05322563     0.04400
C1298       C  0.65301060  0.62922318  0.05837398    -0.24400
H1299       H  0.58908273  0.65428733  0.06850255     0.09500
H1300       H  0.61344785  0.62640608  0.06696348     0.13100
H1301       H  0.63615304  0.69663169  0.05429561     0.13000
H1302       H  0.67065897  0.68417940  0.04831576     0.12800
H1303       H  0.69476816  0.65625775  0.04561199     0.13300
H1304       H  0.64808668  0.61386469  0.06097643     0.15300
C1305       C  0.76632512  0.60156122  0.08246185    -0.04800
C1306       C  0.78628530  0.60370151  0.07564196    -0.04700
C1307       C  0.80206757  0.60566304  0.08942746    -0.22800
C1308       C  0.79806327  0.60538564  0.11017764     0.19400
C1309       C  0.77789820  0.60413767  0.11701024     0.16600
C1310       C  0.76223610  0.60243875  0.10316025    -0.17900
C1311       C  0.77368888  0.60375907  0.13762993    -0.19700
C1312       C  0.78936924  0.60372676  0.15145345    -0.12300
C1313       C  0.80953174  0.60418967  0.14491375     0.04400
C1314       C  0.81381494  0.60553355  0.12422430    -0.24400
H1315       H  0.78975799  0.60317843  0.05971830     0.09500
H1316       H  0.81741156  0.60675068  0.08388847     0.13100
H1317       H  0.74687985  0.60094279  0.10860164     0.13000
H1318       H  0.75828594  0.60288058  0.14306071     0.12800
H1319       H  0.78568833  0.60276317  0.16730233     0.13300
H1320       H  0.82932977  0.60585087  0.11903936     0.15300
C1321       C  0.42484906  0.86744903  0.20145412    -0.04800
C1322       C  0.43404782  0.86313075  0.21996653    -0.04700
C1323       C  0.45512021  0.86267291  0.22162312    -0.22800
C1324       C  0.46734926  0.86660414  0.20481269     0.19400
C1325       C  0.45816219  0.87096526  0.18617872     0.16600
C1326       C  0.43708995  0.87131545  0.18462812    -0.17900
C1327       C  0.47017672  0.87508257  0.16935918    -0.19700
C1328       C  0.49112798  0.87514930  0.17097626    -0.12300
C1329       C  0.50056559  0.87101937  0.18941822     0.04400
C1330       C  0.48854605  0.86653387  0.20630476    -0.24400
H1331       H  0.42495227  0.86012992  0.23316865     0.09500
H1332       H  0.46184241  0.85934425  0.23606158     0.13100
H1333       H  0.43022301  0.87474228  0.17027027     0.13000
H1334       H  0.46336510  0.87846065  0.15497081     0.12800
H1335       H  0.49997697  0.87866272  0.15773334     0.13300
H1336       H  0.49562866  0.86344911  0.22063200     0.15300
C1337       C  0.57725294  0.77218704  0.10191594    -0.04800
C1338       C  0.57546019  0.76648006  0.12216297    -0.04700
C1339       C  0.57609391  0.78085552  0.13750438    -0.22800
C1340       C  0.57841740  0.80130381  0.13294389     0.19400
C1341       C  0.58070248  0.80736645  0.11271848     0.16600
C1342       C  0.58028542  0.79270260  0.09726164    -0.17900
C1343       C  0.58273182  0.82801532  0.10839027    -0.19700
C1344       C  0.58193626  0.84245594  0.12390958    -0.12300
C1345       C  0.57927663  0.83644459  0.14398724     0.04400
C1346       C  0.57788581  0.81578205  0.14834782    -0.24400
H1347       H  0.57315094  0.75083141  0.12618711     0.09500
H1348       H  0.57432241  0.77599957  0.15294590     0.13100
H1349       H  0.58159219  0.79730896  0.08169897     0.13000
H1350       H  0.58447818  0.83301794  0.09300127     0.12800
H1351       H  0.58294524  0.85831794  0.12016548     0.13300
H1352       H  0.57575113  0.81092131  0.16375219     0.15300
C1353       C  0.84384294  0.67683838  0.30201911    -0.04800
C1354       C  0.83923135  0.65661243  0.30627285    -0.04700
C1355       C  0.83944168  0.64197401  0.29099965    -0.22800
C1356       C  0.84423452  0.64728624  0.27116231     0.19400
C1357       C  0.84900165  0.66756751  0.26672188     0.16600
C1358       C  0.84883305  0.68217168  0.28215095    -0.17900
C1359       C  0.85388400  0.67289067  0.24692194    -0.19700
C1360       C  0.85414175  0.65824811  0.23167952    -0.12300
C1361       C  0.84949973  0.63798894  0.23590121     0.04400
C1362       C  0.84445205  0.63264999  0.25573139    -0.24400
H1363       H  0.83553239  0.65207370  0.32145884     0.09500
H1364       H  0.83584969  0.62648371  0.29471270     0.13100
H1365       H  0.85257215  0.69768708  0.27866531     0.13000
H1366       H  0.85759133  0.68835774  0.24323265     0.12800
H1367       H  0.85813140  0.66278375  0.21655967     0.13300
H1368       H  0.84096213  0.61707619  0.25921949     0.15300
C1369       C  0.67181151  0.86959207  0.28517713    -0.04800
C1370       C  0.67847302  0.87247182  0.26527919    -0.04700
C1371       C  0.66487011  0.87202499  0.24925033    -0.22800
C1372       C  0.64426698  0.86881586  0.25277298     0.19400
C1373       C  0.63743147  0.86534841  0.27261000     0.16600
C1374       C  0.65123907  0.86566528  0.28865882    -0.17900
C1375       C  0.61680676  0.86215513  0.27610160    -0.19700
C1376       C  0.60300904  0.86305132  0.26023025    -0.12300
C1377       C  0.60953761  0.86714676  0.24052895     0.04400
C1378       C  0.63032597  0.86960496  0.23688573    -0.24400
H1379       H  0.69421055  0.87544066  0.26211142     0.09500
H1380       H  0.67041641  0.87461617  0.23413473     0.13100
H1381       H  0.64586825  0.86340757  0.30389711     0.13000
H1382       H  0.61127570  0.85939201  0.29119075     0.12800
H1383       H  0.58713091  0.86106270  0.26348047     0.13300
H1384       H  0.63562305  0.87268428  0.22177076     0.15300
C1385       C  0.76086745  0.83292024  0.32949821    -0.04800
C1386       C  0.78132419  0.83832035  0.32951435    -0.04700
C1387       C  0.79634048  0.82353159  0.33114727    -0.22800
C1388       C  0.79113960  0.80309952  0.33282368     0.19400
C1389       C  0.77061765  0.79747854  0.33232057     0.16600
C1390       C  0.75564111  0.81239511  0.33057809    -0.17900
C1391       C  0.76539489  0.77707044  0.33406366    -0.19700
C1392       C  0.78034804  0.76238526  0.33671974    -0.12300
C1393       C  0.80079236  0.76782642  0.33757908     0.04400
C1394       C  0.80608271  0.78824539  0.33538372    -0.24400
H1395       H  0.78571442  0.85403474  0.32878521     0.09500
H1396       H  0.81199946  0.82810915  0.33147951     0.13100
H1397       H  0.73990208  0.80804365  0.33060640     0.13000
H1398       H  0.74973492  0.77249556  0.33366108     0.12800
H1399       H  0.77588178  0.74676050  0.33830157     0.13300
H1400       H  0.82179251  0.79263928  0.33602134     0.15300
C1401       C  0.49368169  0.98201779  0.20510555    -0.04800
C1402       C  0.48275264  0.98238417  0.22324424    -0.04700
C1403       C  0.46177678  0.98160456  0.22309325    -0.22800
C1404       C  0.45146262  0.98043431  0.20480081     0.19400
C1405       C  0.46237330  0.97967598  0.18648265     0.16600
C1406       C  0.48340057  0.98045012  0.18678671    -0.17900
C1407       C  0.45201941  0.97841161  0.16822648    -0.19700
C1408       C  0.43102103  0.97827852  0.16800938    -0.12300
C1409       C  0.42010480  0.97937026  0.18612699     0.04400
C1410       C  0.43045121  0.98024229  0.20445267    -0.24400
H1411       H  0.49044323  0.98349077  0.23758948     0.09500
H1412       H  0.45359911  0.98211406  0.23726774     0.13100
H1413       H  0.49178810  0.97999509  0.17265420     0.13000
H1414       H  0.46026887  0.97769612  0.15392468     0.12800
H1415       H  0.42330472  0.97743297  0.15372326     0.13300
H1416       H  0.42203843  0.98096480  0.21870107     0.15300
C1417       C  0.66751327  0.98704744  0.29054255    -0.04800
C1418       C  0.67309490  0.98669761  0.27015835    -0.04700
C1419       C  0.65839575  0.98577150  0.25527539    -0.22800
C1420       C  0.63795516  0.98527169  0.26062531     0.19400
C1421       C  0.63223105  0.98579347  0.28112326     0.16600
C1422       C  0.64704041  0.98668554  0.29593064    -0.17900
C1423       C  0.61179513  0.98538879  0.28648739    -0.19700
C1424       C  0.59709852  0.98463120  0.27161770    -0.12300
C1425       C  0.60267832  0.98426857  0.25123262     0.04400
C1426       C  0.62313834  0.98441160  0.24581680    -0.24400
H1427       H  0.68882462  0.98693030  0.26572403     0.09500
H1428       H  0.66300204  0.98541218  0.23961934     0.13100
H1429       H  0.64260316  0.98698337  0.31164438     0.13000
H1430       H  0.60718961  0.98577799  0.30214333     0.12800
H1431       H  0.58136832  0.98454409  0.27607175     0.13300
H1432       H  0.62754960  0.98410121  0.23009419     0.15300
C1433       C  0.48961077  0.73315279  0.95567623    -0.04800
C1434       C  0.48055521  0.75234098  0.95442117    -0.04700
C1435       C  0.45957197  0.75417926  0.95326998    -0.22800
C1436       C  0.44749684  0.73683597  0.95323722     0.19400
C1437       C  0.45658216  0.71762063  0.95549086     0.16600
C1438       C  0.47747360  0.71594962  0.95686918    -0.17900
C1439       C  0.44473751  0.70022237  0.95555302    -0.19700
C1440       C  0.42407588  0.70170137  0.95250134    -0.12300
C1441       C  0.41493100  0.72060410  0.94942078     0.04400
C1442       C  0.42662349  0.73822814  0.95032476    -0.24400
H1443       H  0.48969288  0.76582511  0.95366637     0.09500
H1444       H  0.45285902  0.76905313  0.95176742     0.13100
H1445       H  0.48431530  0.70109153  0.95809866     0.13000
H1446       H  0.45151596  0.68542413  0.95745727     0.12800
H1447       H  0.41529819  0.68795420  0.95223182     0.13300
H1448       H  0.41961493  0.75289798  0.94824233     0.15300
C1449       C  0.59291926  0.67332224  0.94371752    -0.04800
C1450       C  0.58622982  0.65365589  0.94768681    -0.04700
C1451       C  0.59983164  0.63751520  0.94755446    -0.22800
C1452       C  0.62027800  0.64086870  0.94345696     0.19400
C1453       C  0.62703308  0.66058624  0.93908830     0.16600
C1454       C  0.61329607  0.67664229  0.93912553    -0.17900
C1455       C  0.64747781  0.66399463  0.93510307    -0.19700
C1456       C  0.66118865  0.64799298  0.93559957    -0.12300
C1457       C  0.65460437  0.62836253  0.93993007     0.04400
C1458       C  0.63410963  0.62487323  0.94380793    -0.24400
H1459       H  0.57056430  0.65081167  0.95130111     0.09500
H1460       H  0.59442143  0.62248581  0.95091315     0.13100
H1461       H  0.61856470  0.69177919  0.93596452     0.13000
H1462       H  0.65287135  0.67902701  0.93172232     0.12800
H1463       H  0.67693243  0.65096630  0.93247155     0.13300
H1464       H  0.62892784  0.60975546  0.94718307     0.15300
C1465       C  0.81129465  0.18779355  0.32696365    -0.04800
C1466       C  0.81780048  0.16831995  0.32126209    -0.04700
C1467       C  0.80410331  0.15229273  0.32034418    -0.22800
C1468       C  0.78372634  0.15544104  0.32534708     0.19400
C1469       C  0.77703132  0.17509504  0.33060054     0.16600
C1470       C  0.79076020  0.19109810  0.33117487    -0.17900
C1471       C  0.75680484  0.17837737  0.33582988    -0.19700
C1472       C  0.74337826  0.16226455  0.33640550    -0.12300
C1473       C  0.74985387  0.14254116  0.33167537     0.04400
C1474       C  0.77004598  0.13925871  0.32580225    -0.24400
H1475       H  0.83354138  0.16539981  0.31788317     0.09500
H1476       H  0.80953731  0.13736133  0.31620546     0.13100
H1477       H  0.78552328  0.20603164  0.33558139     0.13000
H1478       H  0.75144793  0.19335483  0.33989763     0.12800
H1479       H  0.72794307  0.16522357  0.34098369     0.13300
H1480       H  0.77521398  0.12411685  0.32209757     0.15300
C1481       C  0.84475721  0.45045527  0.19751389    -0.04800
C1482       C  0.83486751  0.46000106  0.21377143    -0.04700
C1483       C  0.83433831  0.48115004  0.21536051    -0.22800
C1484       C  0.84371635  0.49315278  0.20072954     0.19400
C1485       C  0.85348485  0.48362761  0.18424336     0.16600
C1486       C  0.85391250  0.46246974  0.18273704    -0.17900
C1487       C  0.86285282  0.49538915  0.16953909    -0.19700
C1488       C  0.86264597  0.51640147  0.17110840    -0.12300
C1489       C  0.85312755  0.52622021  0.18743709     0.04400
C1490       C  0.84362675  0.51444360  0.20227489    -0.24400
H1491       H  0.82770569  0.45110946  0.22537137     0.09500
H1492       H  0.82672128  0.48810566  0.22810688     0.13100
H1493       H  0.86161315  0.45535789  0.17011704     0.13000
H1494       H  0.87041363  0.48833387  0.15681582     0.12800
H1495       H  0.87011890  0.52500303  0.15947393     0.13300
H1496       H  0.83621368  0.52178880  0.21493101     0.15300
C1497       C  0.84590600  0.28098264  0.28923495    -0.04800
C1498       C  0.84982088  0.27412552  0.26952940    -0.04700
C1499       C  0.84983436  0.28746813  0.25336895    -0.22800
C1500       C  0.84594669  0.30805491  0.25648096     0.19400
C1501       C  0.84160218  0.31525013  0.27610408     0.16600
C1502       C  0.84158983  0.30165872  0.29240989    -0.17900
C1503       C  0.83768117  0.33594467  0.27901785    -0.19700
C1504       C  0.83845325  0.34933915  0.26275690    -0.12300
C1505       C  0.84317923  0.34232754  0.24326354     0.04400
C1506       C  0.84668695  0.32156130  0.24027344    -0.24400
H1507       H  0.85318893  0.25835554  0.26657382     0.09500
H1508       H  0.85314597  0.28168811  0.23842685     0.13100
H1509       H  0.83857956  0.30720084  0.30750558     0.13000
H1510       H  0.83426212  0.34181525  0.29390061     0.12800
H1511       H  0.83568602  0.36525868  0.26550526     0.13300
H1512       H  0.85030098  0.31590305  0.22534590     0.15300
C1513       C  0.72088099  0.51873667  0.05368953    -0.04800
C1514       C  0.73974075  0.50914647  0.05121043    -0.04700
C1515       C  0.74143814  0.48809113  0.05135260    -0.22800
C1516       C  0.72428764  0.47608827  0.05390479     0.19400
C1517       C  0.70532166  0.48546331  0.05711350     0.16600
C1518       C  0.70373010  0.50673638  0.05705615    -0.17900
C1519       C  0.68822027  0.47335421  0.05982989    -0.19700
C1520       C  0.68979957  0.45224061  0.05887230    -0.12300
C1521       C  0.70847324  0.44279056  0.05503405     0.04400
C1522       C  0.72573547  0.45488520  0.05283731    -0.24400
H1523       H  0.75323413  0.51794998  0.04872492     0.09500
H1524       H  0.75613074  0.48119283  0.04904159     0.13100
H1525       H  0.68910565  0.51388668  0.05899888     0.13000
H1526       H  0.67355513  0.48021463  0.06238532     0.12800
H1527       H  0.67628591  0.44330388  0.06063798     0.13300
H1528       H  0.74026984  0.44781458  0.05001784     0.15300
C1529       C  0.76383738  0.36612174  0.08565786    -0.04800
C1530       C  0.78372724  0.36885638  0.07883941    -0.04700
C1531       C  0.79977636  0.36913722  0.09245502    -0.22800
C1532       C  0.79616151  0.36680362  0.11312367     0.19400
C1533       C  0.77624221  0.36343515  0.11996882     0.16600
C1534       C  0.76030371  0.36294356  0.10622355    -0.17900
C1535       C  0.77240819  0.36143214  0.14056430    -0.19700
C1536       C  0.78798358  0.36362724  0.15437968    -0.12300
C1537       C  0.80775809  0.36757735  0.14789230     0.04400
C1538       C  0.81190274  0.36858989  0.12714912    -0.24400
H1539       H  0.78680686  0.37143386  0.06305764     0.09500
H1540       H  0.81491162  0.37175807  0.08688843     0.13100
H1541       H  0.74502600  0.36081296  0.11166440     0.13000
H1542       H  0.75723816  0.35879642  0.14604581     0.12800
H1543       H  0.78444150  0.36267318  0.17026031     0.13300
H1544       H  0.82708910  0.37174605  0.12200109     0.15300
C1545       C  0.49027789  0.09912549  0.20280132    -0.04800
C1546       C  0.48004478  0.10445829  0.22063681    -0.04700
C1547       C  0.45892752  0.10499178  0.22129450    -0.22800
C1548       C  0.44765163  0.10016072  0.20412953     0.19400
C1549       C  0.45784648  0.09497901  0.18608169     0.16600
C1550       C  0.47900219  0.09450625  0.18553262    -0.17900
C1551       C  0.44673197  0.09005421  0.16890745    -0.19700
C1552       C  0.42571739  0.08980217  0.16967742    -0.12300
C1553       C  0.41531925  0.09452356  0.18760503     0.04400
C1554       C  0.42641196  0.10002653  0.20476200    -0.24400
H1555       H  0.48837448  0.10800534  0.23416298     0.09500
H1556       H  0.45142218  0.10897767  0.23528556     0.13100
H1557       H  0.48667695  0.09035501  0.17167219     0.13000
H1558       H  0.45429241  0.08610861  0.15493805     0.12800
H1559       H  0.41758726  0.08559857  0.15620456     0.13300
H1560       H  0.41858302  0.10372557  0.21865971     0.15300
C1561       C  0.59911253  0.10144875  0.24963510    -0.04800
C1562       C  0.59260305  0.10502553  0.26950676    -0.04700
C1563       C  0.60645656  0.10541235  0.28537106    -0.22800
C1564       C  0.62710194  0.10224466  0.28166216     0.19400
C1565       C  0.63378626  0.09899561  0.26167328     0.16600
C1566       C  0.61981849  0.09862670  0.24586217    -0.17900
C1567       C  0.65434043  0.09590345  0.25779539    -0.19700
C1568       C  0.66816808  0.09573825  0.27354718    -0.12300
C1569       C  0.66181251  0.09864218  0.29357010     0.04400
C1570       C  0.64116287  0.10204182  0.29752910    -0.24400
H1571       H  0.57674103  0.10722548  0.27283685     0.09500
H1572       H  0.60099168  0.10798611  0.30056039     0.13100
H1573       H  0.62507862  0.09584746  0.23062945     0.13000
H1574       H  0.65973057  0.09344135  0.24256540     0.12800
H1575       H  0.68393130  0.09312607  0.27001136     0.13300
H1576       H  0.63602681  0.10429131  0.31288548     0.15300
C1577       C  0.50038814  0.24349779  0.05806326    -0.04800
C1578       C  0.49233391  0.26238344  0.06379100    -0.04700
C1579       C  0.47137647  0.26537394  0.06495931    -0.22800
C1580       C  0.45810630  0.24948544  0.06054235     0.19400
C1581       C  0.46616513  0.23043309  0.05495330     0.16600
C1582       C  0.48710368  0.22760151  0.05371558    -0.17900
C1583       C  0.45318459  0.21443217  0.05059043    -0.19700
C1584       C  0.43237881  0.21720469  0.05165766    -0.12300
C1585       C  0.42398644  0.23604847  0.05706372     0.04400
C1586       C  0.43698877  0.25222696  0.06152881    -0.24400
H1587       H  0.50223444  0.27489385  0.06717169     0.09500
H1588       H  0.46556154  0.28010711  0.06927605     0.13100
H1589       H  0.49305465  0.21293308  0.04931503     0.13000
H1590       H  0.45912266  0.19974098  0.04628343     0.12800
H1591       H  0.42281184  0.20448307  0.04806666     0.13300
H1592       H  0.43073514  0.26685060  0.06561961     0.15300
C1593       C  0.56940344  0.14073529  0.15711149    -0.04800
C1594       C  0.56789467  0.16098282  0.16351463    -0.04700
C1595       C  0.56941305  0.17675177  0.14976573    -0.22800
C1596       C  0.57238698  0.17260237  0.12929143     0.19400
C1597       C  0.57455586  0.15234845  0.12269705     0.16600
C1598       C  0.57315528  0.13652917  0.13666326    -0.17900
C1599       C  0.57744945  0.14827087  0.10216104    -0.19700
C1600       C  0.57738529  0.16402151  0.08823484    -0.12300
C1601       C  0.57455848  0.18413878  0.09459795     0.04400
C1602       C  0.57255467  0.18834487  0.11525020    -0.24400
H1603       H  0.56508049  0.16466864  0.17917061     0.09500
H1604       H  0.56778739  0.19218127  0.15509700     0.13100
H1605       H  0.57436424  0.12099316  0.13152987     0.13000
H1606       H  0.57925066  0.13286872  0.09681004     0.12800
H1607       H  0.57906879  0.16039581  0.07241096     0.13300
H1608       H  0.57041143  0.20379754  0.12035876     0.15300
C1609       C  0.61655816  0.27390074  0.05481125    -0.04800
C1610       C  0.63521915  0.26732708  0.04694044    -0.04700
C1611       C  0.65182737  0.28020884  0.04642780    -0.22800
C1612       C  0.65021167  0.30002343  0.05379263     0.19400
C1613       C  0.63169543  0.30680591  0.06211599     0.16600
C1614       C  0.61496117  0.29371100  0.06258585    -0.17900
C1615       C  0.63018975  0.32668677  0.06946434    -0.19700
C1616       C  0.64661211  0.33984884  0.06801563    -0.12300
C1617       C  0.66492547  0.33340685  0.05928399     0.04400
C1618       C  0.66668723  0.31327779  0.05253242    -0.24400
H1619       H  0.63695043  0.25219818  0.04086290     0.09500
H1620       H  0.66589337  0.27472389  0.04001551     0.13100
H1621       H  0.60070249  0.29900743  0.06872770     0.13000
H1622       H  0.61618863  0.33218699  0.07599421     0.12800
H1623       H  0.64483486  0.35523724  0.07338366     0.13300
H1624       H  0.68068842  0.30806832  0.04574397     0.15300
C1625       C  0.69043016  0.51496117  0.94169571    -0.04800
C1626       C  0.67146708  0.50566503  0.94254053    -0.04700
C1627       C  0.67005957  0.48465679  0.94311497    -0.22800
C1628       C  0.68760268  0.47275194  0.94276317     0.19400
C1629       C  0.70672061  0.48205829  0.94223829     0.16600
C1630       C  0.70799381  0.50306488  0.94179740    -0.17900
C1631       C  0.72427938  0.47021620  0.94185380    -0.19700
C1632       C  0.72291186  0.44923525  0.94163489    -0.12300
C1633       C  0.70397432  0.43986926  0.94188252     0.04400
C1634       C  0.68636010  0.45170378  0.94263741    -0.24400
H1635       H  0.65774450  0.51461707  0.94260848     0.09500
H1636       H  0.65530052  0.47773299  0.94360268     0.13100
H1637       H  0.72270009  0.51012237  0.94126758     0.13000
H1638       H  0.73903049  0.47716880  0.94149629     0.12800
H1639       H  0.73666961  0.44035056  0.94110398     0.13300
H1640       H  0.67168531  0.44457182  0.94289343     0.15300
C1641       C  0.49890750  0.22361407  0.94179299    -0.04800
C1642       C  0.48822906  0.20536984  0.94232070    -0.04700
C1643       C  0.46719955  0.20549293  0.94248810    -0.22800
C1644       C  0.45662127  0.22386804  0.94229475     0.19400
C1645       C  0.46725847  0.24228248  0.94149261     0.16600
C1646       C  0.48831001  0.24202022  0.94112085    -0.17900
C1647       C  0.45668059  0.26066600  0.94143012    -0.19700
C1648       C  0.43568662  0.26080447  0.94253925    -0.12300
C1649       C  0.42505133  0.24256082  0.94363033     0.04400
C1650       C  0.43559398  0.22413345  0.94324125    -0.24400
H1651       H  0.49612989  0.19101838  0.94276045     0.09500
H1652       H  0.45922772  0.19126015  0.94305039     0.13100
H1653       H  0.49642327  0.25618658  0.94067040     0.13000
H1654       H  0.46463811  0.27490202  0.94076925     0.12800
H1655       H  0.42779386  0.27517560  0.94268298     0.13300
H1656       H  0.42747672  0.20997985  0.94394716     0.15300
C1657       C  0.65212568  0.33208548  0.94217838    -0.04800
C1658       C  0.63185954  0.33821609  0.94368530    -0.04700
C1659       C  0.61654766  0.32389059  0.94448332    -0.22800
C1660       C  0.62132282  0.30325532  0.94383148     0.19400
C1661       C  0.64168413  0.29697448  0.94238051     0.16600
C1662       C  0.65693768  0.31142534  0.94155815    -0.17900
C1663       C  0.64646139  0.27633977  0.94173711    -0.19700
C1664       C  0.63115739  0.26200299  0.94245759    -0.12300
C1665       C  0.61089240  0.26812791  0.94377051     0.04400
C1666       C  0.60607377  0.28879629  0.94452999    -0.24400
H1667       H  0.62783191  0.35409132  0.94417993     0.09500
H1668       H  0.60100611  0.32893694  0.94558169     0.13100
H1669       H  0.67254235  0.30656450  0.94041816     0.13000
H1670       H  0.66200242  0.27130141  0.94061686     0.12800
H1671       H  0.63517362  0.24613032  0.94181544     0.13300
H1672       H  0.59046279  0.29366040  0.94558115     0.15300
C1673       C  0.06897622  0.72395775  0.48166260    -0.04800
C1674       C  0.07105355  0.70513826  0.47196041    -0.04700
C1675       C  0.07194817  0.70389633  0.45097202    -0.22800
C1676       C  0.07086221  0.72147592  0.43935271     0.19400
C1677       C  0.06893464  0.74047707  0.44903384     0.16600
C1678       C  0.06796417  0.74158798  0.47006389    -0.17900
C1679       C  0.06780768  0.75807897  0.43753112    -0.19700
C1680       C  0.06820330  0.75688649  0.41660064    -0.12300
C1681       C  0.06974065  0.73808392  0.40675388     0.04400
C1682       C  0.07132734  0.72039146  0.41824536    -0.24400
H1683       H  0.07181664  0.69134723  0.48060398     0.09500
H1684       H  0.07338660  0.68919476  0.44383802     0.13100
H1685       H  0.06641959  0.75619747  0.47739048     0.13000
H1686       H  0.06634287  0.77275734  0.44471175     0.12800
H1687       H  0.06688131  0.77073052  0.40810156     0.13300
H1688       H  0.07242050  0.70580514  0.41080826     0.15300
C1689       C  0.07813615  0.67736762  0.58654020    -0.04800
C1690       C  0.08463467  0.65878168  0.57833892    -0.04700
C1691       C  0.08627274  0.64160222  0.59043136    -0.22800
C1692       C  0.08149782  0.64268741  0.61098783     0.19400
C1693       C  0.07549266  0.66144298  0.61945709     0.16600
C1694       C  0.07380656  0.67858704  0.60721912    -0.17900
C1695       C  0.07090265  0.66270115  0.63999244    -0.19700
C1696       C  0.07164716  0.64546699  0.65194253    -0.12300
C1697       C  0.07687752  0.62654102  0.64363234     0.04400
C1698       C  0.08217710  0.62532087  0.62313417    -0.24400
H1699       H  0.08805699  0.65740926  0.56244894     0.09500
H1700       H  0.09098362  0.62741311  0.58363988     0.13100
H1701       H  0.06879089  0.69280421  0.61375611     0.13000
H1702       H  0.06640796  0.67696914  0.64676905     0.12800
H1703       H  0.06762268  0.64691377  0.66769152     0.13300
H1704       H  0.08633061  0.61085748  0.61655310     0.15300
C1705       C  0.11720392  0.58605116  0.72551418    -0.04800
C1706       C  0.13741602  0.58395536  0.71937249    -0.04700
C1707       C  0.15301368  0.58603397  0.73318949    -0.22800
C1708       C  0.14866580  0.59004531  0.75344561     0.19400
C1709       C  0.12843854  0.59286613  0.75971457     0.16600
C1710       C  0.11281118  0.59102576  0.74565290    -0.17900
C1711       C  0.12418753  0.59666746  0.78007655    -0.19700
C1712       C  0.13973444  0.59660283  0.79422591    -0.12300
C1713       C  0.15976114  0.59289704  0.78819190     0.04400
C1714       C  0.16417085  0.59032663  0.76765819    -0.24400
H1715       H  0.14119364  0.58028777  0.70390902     0.09500
H1716       H  0.16844492  0.58391086  0.72813632     0.13100
H1717       H  0.09727090  0.59275675  0.75051994     0.13000
H1718       H  0.10879159  0.59896051  0.78515473     0.12800
H1719       H  0.13598092  0.59865117  0.80997532     0.13300
H1720       H  0.17958112  0.58756334  0.76281150     0.15300
C1721       C  0.22344973  0.86058518  0.47480121    -0.04800
C1722       C  0.24183150  0.85622927  0.46501851    -0.04700
C1723       C  0.24308527  0.85624261  0.44392879    -0.22800
C1724       C  0.22597809  0.86065192  0.43230293     0.19400
C1725       C  0.20747030  0.86486404  0.44214386     0.16600
C1726       C  0.20633640  0.86474512  0.46316219    -0.17900
C1727       C  0.19032157  0.86942474  0.43086703    -0.19700
C1728       C  0.19144796  0.87014649  0.40999302    -0.12300
C1729       C  0.20970076  0.86618115  0.39984763     0.04400
C1730       C  0.22698310  0.86121673  0.41110489    -0.24400
H1731       H  0.25526289  0.85303619  0.47366519     0.09500
H1732       H  0.25744358  0.85299322  0.43673669     0.13100
H1733       H  0.19205056  0.86812217  0.47047512     0.13000
H1734       H  0.17602923  0.87265739  0.43821109     0.12800
H1735       H  0.17790167  0.87392736  0.40175730     0.13300
H1736       H  0.24116016  0.85818344  0.40346200     0.15300
C1737       C  0.17393304  0.81709215  0.55089743    -0.04800
C1738       C  0.18003319  0.79672135  0.54986833    -0.04700
C1739       C  0.16584748  0.78124799  0.55136636    -0.22800
C1740       C  0.14531820  0.78590353  0.55378452     0.19400
C1741       C  0.13913446  0.80631820  0.55540520     0.16600
C1742       C  0.15347911  0.82174007  0.55411023    -0.17900
C1743       C  0.11861770  0.81101648  0.55770840    -0.19700
C1744       C  0.10425898  0.79566269  0.55786724    -0.12300
C1745       C  0.11017956  0.77534620  0.55581340     0.04400
C1746       C  0.13081255  0.77055281  0.55405579    -0.24400
H1747       H  0.19573612  0.79274458  0.54753044     0.09500
H1748       H  0.17087562  0.76567694  0.55019731     0.13100
H1749       H  0.14861172  0.83738157  0.55500402     0.13000
H1750       H  0.11363444  0.82659279  0.55896798     0.12800
H1751       H  0.08846351  0.79973263  0.55912473     0.13300
H1752       H  0.13555901  0.75492578  0.55242746     0.15300
C1753       C  0.30073945  0.85950260  0.65222070    -0.04800
C1754       C  0.28032187  0.86264643  0.65714525    -0.04700
C1755       C  0.26550487  0.86168919  0.64230258    -0.22800
C1756       C  0.27088897  0.85786915  0.62221997     0.19400
C1757       C  0.29132690  0.85430710  0.61714989     0.16600
C1758       C  0.30608303  0.85493329  0.63220795    -0.17900
C1759       C  0.29673199  0.85079885  0.59700874    -0.19700
C1760       C  0.28212869  0.85151452  0.58193265    -0.12300
C1761       C  0.26185289  0.85553658  0.58676915     0.04400
C1762       C  0.25627499  0.85823720  0.60704396    -0.24400
H1763       H  0.27581525  0.86607479  0.67247044     0.09500
H1764       H  0.24989975  0.86440540  0.64645752     0.13100
H1765       H  0.32178371  0.85249214  0.62822801     0.13000
H1766       H  0.31232393  0.84800448  0.59285600     0.12800
H1767       H  0.28677851  0.84933064  0.56643555     0.13300
H1768       H  0.24066772  0.86130980  0.61097520     0.15300
C1769       C  0.25157266  0.62547485  0.82341286    -0.04800
C1770       C  0.24516077  0.64572619  0.82481089    -0.04700
C1771       C  0.25903940  0.66146248  0.82451372    -0.22800
C1772       C  0.27970300  0.65732887  0.82291550     0.19400
C1773       C  0.28648033  0.63711202  0.82112178     0.16600
C1774       C  0.27234358  0.62125368  0.82131224    -0.17900
C1775       C  0.30728531  0.63319172  0.81959433    -0.19700
C1776       C  0.32118080  0.64909227  0.82037145    -0.12300
C1777       C  0.31450826  0.66917573  0.82267671     0.04400
C1778       C  0.29367557  0.67313531  0.82357155    -0.24400
H1779       H  0.22931245  0.64946295  0.82642845     0.09500
H1780       H  0.25360529  0.67688170  0.82586877     0.13100
H1781       H  0.27751307  0.60571935  0.82029676     0.13000
H1782       H  0.31282462  0.61782094  0.81815018     0.12800
H1783       H  0.33714716  0.64563911  0.81961172     0.13300
H1784       H  0.28827975  0.68854698  0.82525267     0.15300
C1785       C  0.33539755  0.75992471  0.78537980    -0.04800
C1786       C  0.33708326  0.75360087  0.76522574    -0.04700
C1787       C  0.33538073  0.76752288  0.74966727    -0.22800
C1788       C  0.33218959  0.78801659  0.75405908     0.19400
C1789       C  0.32905221  0.79429046  0.77420164     0.16600
C1790       C  0.33038118  0.78012633  0.78974257    -0.17900
C1791       C  0.32593187  0.81482030  0.77855253    -0.19700
C1792       C  0.32732395  0.82915570  0.76328362    -0.12300
C1793       C  0.33163766  0.82315008  0.74342277     0.04400
C1794       C  0.33326800  0.80245658  0.73879118    -0.24400
H1795       H  0.34062394  0.73802448  0.76150167     0.09500
H1796       H  0.33754721  0.76241905  0.73428767     0.13100
H1797       H  0.32889577  0.78510339  0.80524536     0.13000
H1798       H  0.32330608  0.81987531  0.79387569     0.12800
H1799       H  0.32577922  0.84500395  0.76715742     0.13300
H1800       H  0.33643643  0.79762553  0.72348320     0.15300
C1801       C  0.95758464  0.71877986  0.48875133    -0.04800
C1802       C  0.95817469  0.69941137  0.48000517    -0.04700
C1803       C  0.95819157  0.69709484  0.45916062    -0.22800
C1804       C  0.95751126  0.71412259  0.44679346     0.19400
C1805       C  0.95682473  0.73366373  0.45550060     0.16600
C1806       C  0.95690699  0.73586315  0.47640980    -0.17900
C1807       C  0.95601402  0.75069352  0.44315808    -0.19700
C1808       C  0.95578927  0.74839673  0.42233004    -0.12300
C1809       C  0.95639408  0.72904784  0.41355981     0.04400
C1810       C  0.95737140  0.71194142  0.42587221    -0.24400
H1811       H  0.95870935  0.68603066  0.48928071     0.09500
H1812       H  0.95869531  0.68201646  0.45272793     0.13100
H1813       H  0.95639409  0.75086338  0.48304846     0.13000
H1814       H  0.95546933  0.76576632  0.44960289     0.12800
H1815       H  0.95504272  0.76178810  0.41308758     0.13300
H1816       H  0.95786416  0.69695010  0.41921335     0.15300
C1817       C  0.95955163  0.68341281  0.60099509    -0.04800
C1818       C  0.96399296  0.68880414  0.62094040    -0.04700
C1819       C  0.96549308  0.67390627  0.63567332    -0.22800
C1820       C  0.96255992  0.65353770  0.63054600     0.19400
C1821       C  0.95808275  0.64816274  0.61046887     0.16600
C1822       C  0.95655239  0.66308559  0.59593369    -0.17900
C1823       C  0.95526233  0.62791340  0.60512824    -0.19700
C1824       C  0.95676127  0.61297647  0.61962743    -0.12300
C1825       C  0.96103034  0.61811299  0.63965773     0.04400
C1826       C  0.96398082  0.63842578  0.64506957    -0.24400
H1827       H  0.96650005  0.70443803  0.62506944     0.09500
H1828       H  0.96900311  0.67827479  0.65099099     0.13100
H1829       H  0.95311472  0.65877948  0.58057002     0.13000
H1830       H  0.95186778  0.62363665  0.58975700     0.12800
H1831       H  0.95442064  0.59740090  0.61517052     0.13300
H1832       H  0.96731449  0.64247428  0.66052189     0.15300
C1833       C  0.21267443  0.97405483  0.47888756    -0.04800
C1834       C  0.19383465  0.97293047  0.46940835    -0.04700
C1835       C  0.19262859  0.97292180  0.44846769    -0.22800
C1836       C  0.21025420  0.97408781  0.43682905     0.12200
C1837       C  0.22925099  0.97494215  0.44633745     0.16600
C1838       C  0.23032364  0.97486176  0.46725341    -0.17900
C1839       C  0.24690221  0.97608974  0.43480284    -0.19700
C1840       C  0.24575118  0.97667947  0.41393158    -0.12300
C1841       C  0.22694485  0.97606827  0.40435071     0.04400
C1842       C  0.20922641  0.97462784  0.41586291    -0.24400
H1843       H  0.18005598  0.97214477  0.47816763     0.09500
H1844       H  0.17796114  0.97216945  0.44139935     0.13100
H1845       H  0.24494128  0.97559442  0.47445311     0.13000
H1846       H  0.26155672  0.97670372  0.44191590     0.12800
H1847       H  0.25958854  0.97774895  0.40529586     0.13300
H1848       H  0.19465954  0.97407673  0.40855037     0.15300
C1849       C  0.26633233  0.97199645  0.58477550    -0.04800
C1850       C  0.28654408  0.97004957  0.57865205    -0.04700
C1851       C  0.30190146  0.96994660  0.59290467    -0.22800
C1852       C  0.29717722  0.97184939  0.61339315     0.19400
C1853       C  0.27686219  0.97396293  0.61959148     0.16600
C1854       C  0.26160614  0.97398894  0.60525532    -0.17900
C1855       C  0.27210007  0.97598553  0.64003910    -0.19700
C1856       C  0.28738738  0.97578275  0.65431978    -0.12300
C1857       C  0.30759332  0.97358744  0.64829296     0.04400
C1858       C  0.31241020  0.97166530  0.62779733    -0.24400
H1859       H  0.29046255  0.96853414  0.56288179     0.09500
H1860       H  0.31741595  0.96836154  0.58793157     0.13100
H1861       H  0.24603836  0.97562648  0.61008099     0.13000
H1862       H  0.25658352  0.97769344  0.64497377     0.12800
H1863       H  0.28340304  0.97739431  0.67006123     0.13300
H1864       H  0.32799287  0.97002381  0.62303097     0.15300
C1865       C  0.21759933  0.43712340  0.82491588    -0.04800
C1866       C  0.23631035  0.44657865  0.82198813    -0.04700
C1867       C  0.23769300  0.46770648  0.82163345    -0.22800
C1868       C  0.22038290  0.47978522  0.82416700     0.19400
C1869       C  0.20151106  0.47040206  0.82712368     0.16600
C1870       C  0.20024462  0.44923407  0.82743268    -0.17900
C1871       C  0.18419242  0.48233603  0.82985842    -0.19700
C1872       C  0.18552006  0.50337540  0.82971385    -0.12300
C1873       C  0.20416305  0.51297556  0.82671399     0.04400
C1874       C  0.22159311  0.50103737  0.82390113    -0.24400
H1875       H  0.24991942  0.43763395  0.82013630     0.09500
H1876       H  0.25231607  0.47459577  0.81943717     0.13100
H1877       H  0.18570647  0.44219579  0.82979940     0.13000
H1878       H  0.16960863  0.47539900  0.83220597     0.12800
H1879       H  0.17187071  0.51217028  0.83199734     0.13300
H1880       H  0.23608070  0.50824890  0.82180795     0.15300
C1881       C  0.07760207  0.50828959  0.67486287    -0.04800
C1882       C  0.07934993  0.49852788  0.65607794    -0.04700
C1883       C  0.07892780  0.47732405  0.65470457    -0.22800
C1884       C  0.07676175  0.46552775  0.67210412     0.19400
C1885       C  0.07557698  0.47532790  0.69102868     0.16600
C1886       C  0.07610710  0.49646062  0.69227122    -0.17900
C1887       C  0.07338337  0.46391121  0.70851242    -0.19700
C1888       C  0.07181888  0.44297916  0.70734555    -0.12300
C1889       C  0.07256446  0.43285768  0.68870565     0.04400
C1890       C  0.07536633  0.44422774  0.67102969    -0.24400
H1891       H  0.08053205  0.50728480  0.64242782     0.09500
H1892       H  0.07993088  0.47018439  0.64002543     0.13100
H1893       H  0.07486288  0.50372553  0.70688602     0.13000
H1894       H  0.07254740  0.47120553  0.72312754     0.12800
H1895       H  0.06987350  0.43466202  0.72119630     0.13300
H1896       H  0.07593984  0.43662443  0.65655413     0.15300
C1897       C  0.10602548  0.35705252  0.73963308    -0.04800
C1898       C  0.09949721  0.35863345  0.75971786    -0.04700
C1899       C  0.11341716  0.35876747  0.77543084    -0.22800
C1900       C  0.13413789  0.35738398  0.77134558     0.19400
C1901       C  0.14088047  0.35529173  0.75124250     0.16600
C1902       C  0.12678035  0.35500049  0.73552878    -0.17900
C1903       C  0.16163921  0.35420963  0.74717698    -0.19700
C1904       C  0.17559071  0.35584803  0.76282155    -0.12300
C1905       C  0.16902836  0.35832996  0.78282882     0.04400
C1906       C  0.14822367  0.35868298  0.78698882    -0.24400
H1907       H  0.08362468  0.36035285  0.76327114     0.09500
H1908       H  0.10799346  0.36042420  0.79075168     0.13100
H1909       H  0.13200621  0.35378822  0.72009421     0.13000
H1910       H  0.16709287  0.35257968  0.73186232     0.12800
H1911       H  0.19153330  0.35549407  0.75922483     0.13300
H1912       H  0.14296581  0.36066832  0.80233719     0.15300
C1913       C  0.32000212  0.27834390  0.82946626    -0.04800
C1914       C  0.32633554  0.29729150  0.82243054    -0.04700
C1915       C  0.31240735  0.31316454  0.82008099    -0.22800
C1916       C  0.29193396  0.31039683  0.82486979     0.19400
C1917       C  0.28552761  0.29131587  0.83177650     0.16600
C1918       C  0.29949042  0.27552028  0.83393746    -0.17900
C1919       C  0.26525215  0.28831164  0.83673254    -0.19700
C1920       C  0.25139958  0.30411293  0.83521430    -0.12300
C1921       C  0.25742744  0.32332244  0.82865842     0.04400
C1922       C  0.27779172  0.32633876  0.82326060    -0.24400
H1923       H  0.34205664  0.29986864  0.81885970     0.09500
H1924       H  0.31768197  0.32764526  0.81473868     0.13100
H1925       H  0.29435173  0.26102776  0.83941113     0.13000
H1926       H  0.26011937  0.27376410  0.84204308     0.12800
H1927       H  0.23589150  0.30129906  0.83948151     0.13300
H1928       H  0.28266983  0.34106685  0.81820002     0.15300
C1929       C  0.34072733  0.12539846  0.74609664    -0.04800
C1930       C  0.33624402  0.11864739  0.76561320    -0.04700
C1931       C  0.33586642  0.13220082  0.78186317    -0.22800
C1932       C  0.34001626  0.15272616  0.77886459     0.19400
C1933       C  0.34355429  0.15976677  0.75912934     0.16600
C1934       C  0.34372798  0.14612734  0.74290958    -0.17900
C1935       C  0.34774646  0.18020584  0.75599829    -0.19700
C1936       C  0.34932612  0.19341086  0.77231785    -0.12300
C1937       C  0.34660692  0.18650317  0.79210248     0.04400
C1938       C  0.34145265  0.16618057  0.79526257    -0.24400
H1939       H  0.33383150  0.10275047  0.76845473     0.09500
H1940       H  0.33299067  0.12651618  0.79684326     0.13100
H1941       H  0.34709406  0.15155072  0.72791896     0.13000
H1942       H  0.35038357  0.18587545  0.74096548     0.12800
H1943       H  0.35316708  0.20901241  0.76943560     0.13300
H1944       H  0.33931889  0.16068525  0.81044188     0.15300
C1945       C  0.21824144  0.09308530  0.40764050    -0.04800
C1946       C  0.23384373  0.10425478  0.41658392    -0.04700
C1947       C  0.23605302  0.10475711  0.43757046    -0.22800
C1948       C  0.22275454  0.09401924  0.45000867     0.19400
C1949       C  0.20682808  0.08306838  0.44111717     0.16600
C1950       C  0.20463182  0.08275989  0.42012556    -0.17900
C1951       C  0.19348533  0.07229038  0.45332424    -0.19700
C1952       C  0.19596025  0.07213295  0.47414180    -0.12300
C1953       C  0.21177888  0.08281955  0.48332288     0.04400
C1954       C  0.22514970  0.09384571  0.47110381    -0.24400
H1955       H  0.24450879  0.11239022  0.40733768     0.09500
H1956       H  0.24831617  0.11332801  0.44404796     0.13100
H1957       H  0.19246579  0.07414065  0.41349304     0.13000
H1958       H  0.18117748  0.06383527  0.44675633     0.12800
H1959       H  0.18539449  0.06354890  0.48309134     0.13300
H1960       H  0.23735259  0.10221809  0.47795592     0.15300
C1961       C  0.31839940  0.09176016  0.64531962    -0.04800
C1962       C  0.32652810  0.09229745  0.62573395    -0.04700
C1963       C  0.31383053  0.09204645  0.60885920    -0.22800
C1964       C  0.29276565  0.09127831  0.61126569     0.19400
C1965       C  0.28457958  0.09112720  0.63093522     0.16600
C1966       C  0.29735374  0.09137715  0.64769435    -0.17900
C1967       C  0.26367971  0.09039733  0.63364949    -0.19700
C1968       C  0.25090168  0.08943801  0.61710577    -0.12300
C1969       C  0.25863342  0.08917429  0.59737172     0.04400
C1970       C  0.27970966  0.09034775  0.59451292    -0.24400
H1971       H  0.34270477  0.09246799  0.62345464     0.09500
H1972       H  0.32049301  0.09218429  0.59394885     0.13100
H1973       H  0.29083840  0.09090800  0.66266767     0.13000
H1974       H  0.25717633  0.09034160  0.64862949     0.12800
H1975       H  0.23481217  0.08867553  0.61984304     0.13300
H1976       H  0.28591710  0.09015030  0.57940407     0.15300
C1977       C  0.07611416  0.23979032  0.40220376    -0.04800
C1978       C  0.07884890  0.25830479  0.41227843    -0.04700
C1979       C  0.07911760  0.25914108  0.43338451    -0.22800
C1980       C  0.07663648  0.24147095  0.44474383     0.19400
C1981       C  0.07418728  0.22280964  0.43463657     0.16600
C1982       C  0.07399164  0.22210133  0.41358318    -0.17900
C1983       C  0.07166094  0.20508655  0.44570509    -0.19700
C1984       C  0.07130492  0.20577233  0.46664703    -0.12300
C1985       C  0.07346086  0.22418278  0.47703690     0.04400
C1986       C  0.07627691  0.24206409  0.46595727    -0.24400
H1987       H  0.08044739  0.27215704  0.40385909     0.09500
H1988       H  0.08103071  0.27361468  0.44080831     0.13100
H1989       H  0.07188949  0.20769609  0.40605194     0.13000
H1990       H  0.06976134  0.19067068  0.43815397     0.12800
H1991       H  0.06908619  0.19180435  0.47473232     0.13300
H1992       H  0.07794161  0.25636724  0.47377499     0.15300
C1993       C  0.11214819  0.17802494  0.55977036    -0.04800
C1994       C  0.10618984  0.15960437  0.56829950    -0.04700
C1995       C  0.12012502  0.14390090  0.57085098    -0.22800
C1996       C  0.14022830  0.14627195  0.56473006     0.19400
C1997       C  0.14657766  0.16508624  0.55705775     0.16600
C1998       C  0.13256737  0.18088318  0.55482182    -0.17900
C1999       C  0.16662833  0.16749292  0.55086220    -0.19700
C2000       C  0.17998706  0.15112657  0.55124227    -0.12300
C2001       C  0.17362142  0.13206480  0.55796651     0.04400
C2002       C  0.15383439  0.12991154  0.56528579    -0.24400
H2003       H  0.09059314  0.15709285  0.57242677     0.09500
H2004       H  0.11501030  0.12966328  0.57693983     0.13100
H2005       H  0.13740116  0.19507167  0.54838081     0.13000
H2006       H  0.17180400  0.18183622  0.54507585     0.12800
H2007       H  0.19519133  0.15327176  0.54566489     0.13300
H2008       H  0.14878356  0.11534062  0.57062226     0.15300
C2009       C  0.07282755  0.31906236  0.64642019    -0.04800
C2010       C  0.07005568  0.29908557  0.65290573    -0.04700
C2011       C  0.07079479  0.28298050  0.63931921    -0.22800
C2012       C  0.07424678  0.28645085  0.61886574     0.19400
C2013       C  0.07756113  0.30635258  0.61204641     0.16600
C2014       C  0.07693188  0.32259398  0.62590871    -0.17900
C2015       C  0.08097395  0.30959455  0.59144300    -0.19700
C2016       C  0.08058768  0.29336629  0.57776721    -0.12300
C2017       C  0.07681144  0.27362150  0.58445541     0.04400
C2018       C  0.07395688  0.27031083  0.60511468    -0.24400
H2019       H  0.06698863  0.29586921  0.66856799     0.09500
H2020       H  0.06830647  0.26780279  0.64479133     0.13100
H2021       H  0.07909600  0.33790941  0.62068401     0.13000
H2022       H  0.08358987  0.32470187  0.58586303     0.12800
H2023       H  0.08280683  0.29632770  0.56191486     0.13300
H2024       H  0.07106377  0.25516875  0.61050746     0.15300
C2025       C  0.95773265  0.50793027  0.68143281    -0.04800
C2026       C  0.95572452  0.49859426  0.66253774    -0.04700
C2027       C  0.95367056  0.47777553  0.66102565    -0.22800
C2028       C  0.95370401  0.46598651  0.67838697     0.19400
C2029       C  0.95529429  0.47522599  0.69753923     0.16600
C2030       C  0.95730402  0.49621210  0.69895068    -0.17900
C2031       C  0.95521354  0.46325224  0.71485663    -0.19700
C2032       C  0.95439218  0.44223976  0.71311417    -0.12300
C2033       C  0.95358244  0.43304165  0.69404453     0.04400
C2034       C  0.95272158  0.44503532  0.67679613    -0.24400
H2035       H  0.95586635  0.50737984  0.64885233     0.09500
H2036       H  0.95235374  0.47087516  0.64626747     0.13100
H2037       H  0.95868946  0.50335865  0.71359585     0.13000
H2038       H  0.95622015  0.47009150  0.72966825     0.12800
H2039       H  0.95485158  0.43319689  0.72661769     0.13300
H2040       H  0.95181591  0.43806089  0.66202668     0.15300
C2041       C  0.95882365  0.24142810  0.40813618    -0.04800
C2042       C  0.95487777  0.25910594  0.41928167    -0.04700
C2043       C  0.95414903  0.25854629  0.44023226    -0.22800
C2044       C  0.95749659  0.24032295  0.45032417     0.19400
C2045       C  0.96154720  0.22246677  0.43923109     0.16600
C2046       C  0.96213390  0.22312932  0.41820704    -0.17900
C2047       C  0.96495495  0.20426447  0.44936213    -0.19700
C2048       C  0.96433743  0.20375612  0.47034480    -0.12300
C2049       C  0.96036106  0.22145150  0.48146750     0.04400
C2050       C  0.95692806  0.23968969  0.47133329    -0.24400
H2051       H  0.95222834  0.27335261  0.41179401     0.09500
H2052       H  0.95100809  0.27235752  0.44853543     0.13100
H2053       H  0.96527669  0.20942690  0.40970978     0.13000
H2054       H  0.96811739  0.19045012  0.44107196     0.12800
H2055       H  0.96709661  0.18955338  0.47786931     0.13300
H2056       H  0.95379918  0.25342486  0.47978292     0.15300
C2057       C  0.95791474  0.32552457  0.63871815    -0.04800
C2058       C  0.95736336  0.33178094  0.61859177    -0.04700
C2059       C  0.95754918  0.31758284  0.60305901    -0.22800
C2060       C  0.95829300  0.29693482  0.60744082     0.19400
C2061       C  0.95899559  0.29044229  0.62762088     0.16600
C2062       C  0.95888190  0.30480929  0.64315420    -0.17900
C2063       C  0.95965206  0.26970785  0.63186950    -0.19700
C2064       C  0.95964201  0.25553465  0.61618853    -0.12300
C2065       C  0.95903780  0.26196981  0.59610952     0.04400
C2066       C  0.95831154  0.28270254  0.59189871    -0.24400
H2067       H  0.95663551  0.34766726  0.61483964     0.09500
H2068       H  0.95701480  0.32274234  0.58763552     0.13100
H2069       H  0.95937702  0.29985578  0.65865350     0.13000
H2070       H  0.96014977  0.26447765  0.64726887     0.12800
H2071       H  0.96016305  0.23960005  0.61974939     0.13300
H2072       H  0.95777905  0.28784802  0.57646211     0.15300
C2073       C  0.71368449  0.08410618  0.48103456    -0.04800
C2074       C  0.73104622  0.07741121  0.47066435    -0.04700
C2075       C  0.73254341  0.07911417  0.44982132    -0.22800
C2076       C  0.71666689  0.08748043  0.43879511     0.19400
C2077       C  0.69920042  0.09458832  0.44890112     0.16600
C2078       C  0.69784643  0.09297017  0.47002809    -0.17900
C2079       C  0.68332112  0.10282463  0.43760091    -0.19700
C2080       C  0.68461660  0.10363214  0.41653919    -0.12300
C2081       C  0.70187720  0.09636344  0.40642690     0.04400
C2082       C  0.71791970  0.08850598  0.41777126    -0.24400
H2083       H  0.74352326  0.07062289  0.47867785     0.09500
H2084       H  0.74604877  0.07363210  0.44229630     0.13100
H2085       H  0.68439227  0.09822237  0.47780532     0.13000
H2086       H  0.66979601  0.10839161  0.44502396     0.12800
H2087       H  0.67205650  0.10977096  0.40816186     0.13300
H2088       H  0.73133146  0.08281107  0.41021802     0.15300
C2089       C  0.42203758  0.08347917  0.70146449    -0.04800
C2090       C  0.43159458  0.07253245  0.71682004    -0.04700
C2091       C  0.45255014  0.07045900  0.71716272    -0.22800
C2092       C  0.46440533  0.07934328  0.70217687     0.19400
C2093       C  0.45505639  0.09060280  0.68677791     0.16600
C2094       C  0.43392466  0.09263568  0.68653274    -0.17900
C2095       C  0.46702152  0.09945693  0.67180399    -0.19700
C2096       C  0.48802117  0.09716358  0.67207396    -0.12300
C2097       C  0.49743047  0.08599929  0.68733126     0.04400
C2098       C  0.48545487  0.07710157  0.70233916    -0.24400
H2099       H  0.42282454  0.06526712  0.72847116     0.09500
H2100       H  0.45946936  0.06177912  0.72907691     0.13100
H2101       H  0.42674383  0.10106430  0.67457941     0.13000
H2102       H  0.46013922  0.10814134  0.65986684     0.12800
H2103       H  0.49690913  0.10417754  0.66036545     0.13300
H2104       H  0.49249952  0.06840899  0.71418252     0.15300
C2105       C  0.66810922  0.08384642  0.59540152    -0.04800
C2106       C  0.67447165  0.07895794  0.61495346    -0.04700
C2107       C  0.66112752  0.07984823  0.63124157    -0.22800
C2108       C  0.64097289  0.08549432  0.62840599     0.19400
C2109       C  0.63434745  0.09099888  0.60899852     0.16600
C2110       C  0.64798231  0.09023763  0.59258984    -0.17900
C2111       C  0.61406881  0.09658233  0.60632404    -0.19700
C2112       C  0.60039821  0.09588538  0.62246981    -0.12300
C2113       C  0.60673219  0.08970222  0.64164721     0.04400
C2114       C  0.62722577  0.08503258  0.64456481    -0.24400
H2115       H  0.68983149  0.07409120  0.61767689     0.09500
H2116       H  0.66649835  0.07566483  0.64601951     0.13100
H2117       H  0.64281493  0.09408747  0.57764479     0.13000
H2118       H  0.60865413  0.10098630  0.59162823     0.12800
H2119       H  0.58473148  0.09966585  0.61980580     0.13300
H2120       H  0.63238515  0.08035476  0.65927773     0.15300
C2121       C  0.84594399  0.24296071  0.40360941    -0.04800
C2122       C  0.83485380  0.25837935  0.41334068    -0.04700
C2123       C  0.83325867  0.25891268  0.43445606    -0.22800
C2124       C  0.84268968  0.24399726  0.44618982     0.19400
C2125       C  0.85380776  0.22851602  0.43637882     0.16600
C2126       C  0.85540666  0.22815902  0.41537153    -0.17900
C2127       C  0.86319696  0.21345415  0.44766112    -0.19700
C2128       C  0.86166385  0.21358378  0.46851740    -0.12300
C2129       C  0.85080313  0.22882517  0.47874214     0.04400
C2130       C  0.84128730  0.24413838  0.46744853    -0.24400
H2131       H  0.82742037  0.26999207  0.40464251     0.09500
H2132       H  0.82463334  0.27093573  0.44158094     0.13100
H2133       H  0.86402660  0.21615676  0.40815833     0.13000
H2134       H  0.87176032  0.20148953  0.44033780     0.12800
H2135       H  0.86920333  0.20164712  0.47668960     0.13300
H2136       H  0.83283972  0.25596934  0.47509994     0.15300
C2137       C  0.80467296  0.17861753  0.55484864    -0.04800
C2138       C  0.78441965  0.18498747  0.55509152    -0.04700
C2139       C  0.76881587  0.17101629  0.55659769    -0.22800
C2140       C  0.77310105  0.15031201  0.55767430     0.19400
C2141       C  0.79337118  0.14360912  0.55786618     0.16600
C2142       C  0.80908093  0.15783534  0.55659253    -0.17900
C2143       C  0.79747221  0.12278016  0.55879564    -0.19700
C2144       C  0.78166074  0.10877278  0.55886889    -0.12300
C2145       C  0.76148497  0.11535062  0.55805043     0.04400
C2146       C  0.75738009  0.13621391  0.55789895    -0.24400
H2147       H  0.78058604  0.20085822  0.55388811     0.09500
H2148       H  0.75335362  0.17640025  0.55649887     0.13100
H2149       H  0.82463223  0.15270874  0.55638255     0.13000
H2150       H  0.81289663  0.11730534  0.55898014     0.12800
H2151       H  0.78523557  0.09278959  0.55890405     0.13300
H2152       H  0.74189709  0.14152191  0.55731392     0.15300
C2153       C  0.42638588  0.22081840  0.83646225    -0.04800
C2154       C  0.43511133  0.20247610  0.84265146    -0.04700
C2155       C  0.45602258  0.19993241  0.84277384    -0.22800
C2156       C  0.46863994  0.21570195  0.83673308     0.19400
C2157       C  0.46007088  0.23413154  0.83023519     0.16600
C2158       C  0.43899564  0.23655165  0.83006003    -0.17900
C2159       C  0.47275561  0.24991797  0.82429869    -0.19700
C2160       C  0.49371930  0.24754832  0.82496727    -0.12300
C2161       C  0.50238375  0.22931865  0.83147514     0.04400
C2162       C  0.48968355  0.21340649  0.83727867    -0.24400
H2163       H  0.42575511  0.19010225  0.84764213     0.09500
H2164       H  0.46232471  0.18569567  0.84778310     0.13100
H2165       H  0.43245132  0.25074923  0.82523691     0.13000
H2166       H  0.46647040  0.26415666  0.81928730     0.12800
H2167       H  0.50316460  0.26003543  0.82046021     0.13300
H2168       H  0.49615517  0.19927572  0.84239411     0.15300
C2169       C  0.57859323  0.17925028  0.78726701    -0.04800
C2170       C  0.57926175  0.18677816  0.76753778    -0.04700
C2171       C  0.57953039  0.17365522  0.75103212    -0.22800
C2172       C  0.57897586  0.15273400  0.75393321     0.19400
C2173       C  0.57926907  0.14493475  0.77368703     0.16600
C2174       C  0.57925110  0.15824760  0.79024928    -0.17900
C2175       C  0.57874669  0.12396871  0.77651841    -0.19700
C2176       C  0.57710440  0.11091526  0.75999922    -0.12300
C2177       C  0.57598806  0.11859373  0.74037617     0.04400
C2178       C  0.57737703  0.13953766  0.73743229    -0.24400
H2179       H  0.57899818  0.20289251  0.76481773     0.09500
H2180       H  0.57952119  0.17989163  0.73600106     0.13100
H2181       H  0.57884907  0.15226675  0.80538326     0.13000
H2182       H  0.57905981  0.11769213  0.79152335     0.12800
H2183       H  0.57610736  0.09481999  0.76263273     0.13300
H2184       H  0.57667951  0.14561545  0.72234422     0.15300
C2185       C  0.61471591  0.26708918  0.82821791    -0.04800
C2186       C  0.63452746  0.26239405  0.83410438    -0.04700
C2187       C  0.64951251  0.27713470  0.83400115    -0.22800
C2188       C  0.64500104  0.29688561  0.82796835     0.19400
C2189       C  0.62531370  0.30168029  0.82138981     0.16600
C2190       C  0.61030615  0.28673398  0.82147365    -0.17900
C2191       C  0.62087556  0.32147264  0.81533121    -0.19700
C2192       C  0.63563997  0.33646958  0.81626428    -0.12300
C2193       C  0.65513319  0.33193706  0.82318005     0.04400
C2194       C  0.65975584  0.31199403  0.82878826    -0.24400
H2195       H  0.63836895  0.24738153  0.83927660     0.09500
H2196       H  0.66454573  0.27316610  0.83899511     0.13100
H2197       H  0.59511922  0.29053241  0.81679384     0.13000
H2198       H  0.60589717  0.32543408  0.81017545     0.12800
H2199       H  0.63171447  0.35169755  0.81181642     0.13300
H2200       H  0.67472999  0.30828189  0.83415793     0.15300
C2201       C  0.84379872  0.26900679  0.59285264    -0.04800
C2202       C  0.84828464  0.26269870  0.61249949    -0.04700
C2203       C  0.84735259  0.27618534  0.62866804    -0.22800
C2204       C  0.84200379  0.29640467  0.62562353     0.19400
C2205       C  0.83718080  0.30308274  0.60605840     0.16600
C2206       C  0.83801736  0.28930094  0.58973896    -0.17900
C2207       C  0.83201215  0.32348826  0.60322616    -0.19700
C2208       C  0.83214259  0.33713409  0.61948644    -0.12300
C2209       C  0.83732678  0.33062406  0.63891148     0.04400
C2210       C  0.84190333  0.31009934  0.64183769    -0.24400
H2211       H  0.85273613  0.24722986  0.61542274     0.09500
H2212       H  0.85109742  0.27082425  0.64356521     0.13100
H2213       H  0.83453256  0.29441794  0.57468569     0.13000
H2214       H  0.82824034  0.32897867  0.58838126     0.12800
H2215       H  0.82860867  0.35287126  0.61677702     0.13300
H2216       H  0.84597312  0.30482946  0.65669127     0.15300
C2217       C  0.80500046  0.36377649  0.73726280    -0.04800
C2218       C  0.81168327  0.35971051  0.75687502    -0.04700
C2219       C  0.79803232  0.35936271  0.77298669    -0.22800
C2220       C  0.77745537  0.36309011  0.76975994     0.19400
C2221       C  0.77052114  0.36638655  0.74996156     0.16600
C2222       C  0.78428983  0.36668719  0.73389079    -0.17900
C2223       C  0.74998312  0.36991396  0.74659772    -0.19700
C2224       C  0.73652344  0.37099503  0.76275115    -0.12300
C2225       C  0.74329962  0.36856630  0.78260950     0.04400
C2226       C  0.76378513  0.36415993  0.78598915    -0.24400
H2227       H  0.82755733  0.35732124  0.75985383     0.09500
H2228       H  0.80363425  0.35663839  0.78801449     0.13100
H2229       H  0.77891702  0.36972177  0.71882534     0.13000
H2230       H  0.74438309  0.37228476  0.73150339     0.12800
H2231       H  0.72080735  0.37420437  0.75968847     0.13300
H2232       H  0.76917062  0.36211167  0.80121107     0.15300
C2233       C  0.41937908  0.97625161  0.68536715    -0.04800
C2234       C  0.42812486  0.97833638  0.66621799    -0.04700
C2235       C  0.44899890  0.97909640  0.66399928    -0.22800
C2236       C  0.46141111  0.97774241  0.68090700     0.19400
C2237       C  0.45273584  0.97580944  0.70026223     0.16600
C2238       C  0.43176969  0.97506113  0.70236660    -0.17900
C2239       C  0.46517810  0.97453117  0.71717132    -0.19700
C2240       C  0.48606977  0.97481533  0.71488659    -0.12300
C2241       C  0.49476921  0.97629936  0.69566912     0.04400
C2242       C  0.48236155  0.97801487  0.67874136    -0.24400
H2243       H  0.41881834  0.97938885  0.65291806     0.09500
H2244       H  0.45542204  0.98063713  0.64907804     0.13100
H2245       H  0.42513170  0.97346381  0.71719733     0.13000
H2246       H  0.45876986  0.97310050  0.73210791     0.12800
H2247       H  0.49541298  0.97347115  0.72813286     0.13300
H2248       H  0.48897672  0.97924563  0.66386024     0.15300
C2249       C  0.71281985  0.97965949  0.40039011    -0.04800
C2250       C  0.73088961  0.97698315  0.41098532    -0.04700
C2251       C  0.73049464  0.97377521  0.43170054    -0.22800
C2252       C  0.71202529  0.97328351  0.44202063     0.19400
C2253       C  0.69380770  0.97597343  0.43140464     0.16600
C2254       C  0.69433589  0.97914211  0.41070427    -0.17900
C2255       C  0.67533054  0.97555931  0.44165979    -0.19700
C2256       C  0.67490421  0.97287684  0.46240910    -0.12300
C2257       C  0.69294508  0.97053444  0.47313058     0.04400
C2258       C  0.71146193  0.97044886  0.46281246    -0.24400
H2259       H  0.74529166  0.97724315  0.40325176     0.09500
H2260       H  0.74458600  0.97173555  0.43963649     0.13100
H2261       H  0.68030514  0.98118093  0.40263896     0.13000
H2262       H  0.66125381  0.97755003  0.43368172     0.12800
H2263       H  0.66047062  0.97295557  0.47010039     0.13300
H2264       H  0.72545427  0.96860519  0.47098490     0.15300
C2265       C  0.64633728  0.96811554  0.58206860    -0.04800
C2266       C  0.62601412  0.96827712  0.57628269    -0.04700
C2267       C  0.61083163  0.96676302  0.59066567    -0.22800
C2268       C  0.61579656  0.96527085  0.61102323     0.19400
C2269       C  0.63621933  0.96502587  0.61701681     0.16600
C2270       C  0.65138941  0.96638545  0.60246476    -0.17900
C2271       C  0.64107325  0.96372837  0.63746282    -0.19700
C2272       C  0.62575015  0.96340759  0.65188932    -0.12300
C2273       C  0.60546441  0.96420298  0.64596457     0.04400
C2274       C  0.60060052  0.96459283  0.62550059    -0.24400
H2275       H  0.62183645  0.96944482  0.56060347     0.09500
H2276       H  0.59522957  0.96695607  0.58589256     0.13100
H2277       H  0.66706671  0.96618168  0.60702218     0.13000
H2278       H  0.65665486  0.96342718  0.64229386     0.12800
H2279       H  0.62976658  0.96300599  0.66765188     0.13300
H2280       H  0.58496786  0.96509593  0.62080899     0.15300
C2281       C  0.70641965  0.87302355  0.40097055    -0.04800
C2282       C  0.72050138  0.88349202  0.41280118    -0.04700
C2283       C  0.71996620  0.88242782  0.43372050    -0.22800
C2284       C  0.70544726  0.87067411  0.44342068     0.19400
C2285       C  0.69093196  0.86018379  0.43195516     0.16600
C2286       C  0.69142203  0.86149448  0.41069600    -0.17900
C2287       C  0.67638395  0.84854331  0.44206405    -0.19700
C2288       C  0.67636136  0.84728337  0.46320511    -0.12300
C2289       C  0.69103983  0.85743413  0.47457380     0.04400
C2290       C  0.70542361  0.86918981  0.46445316    -0.24400
H2291       H  0.73206936  0.89261614  0.40583570     0.09500
H2292       H  0.73109892  0.89067665  0.44232784     0.13100
H2293       H  0.68045580  0.85334153  0.40179245     0.13000
H2294       H  0.66506116  0.84038761  0.43363048     0.12800
H2295       H  0.66504658  0.83821813  0.47063403     0.13300
H2296       H  0.71665181  0.87738109  0.47300866     0.15300
C2297       C  0.84383446  0.73074060  0.49026753    -0.04800
C2298       C  0.84479251  0.74937676  0.48028132    -0.04700
C2299       C  0.84404735  0.75033368  0.45937828    -0.22800
C2300       C  0.84241851  0.73264678  0.44790165     0.19400
C2301       C  0.84094257  0.71375410  0.45759036     0.16600
C2302       C  0.84156660  0.71289679  0.47881275    -0.17900
C2303       C  0.83919131  0.69614709  0.44579324    -0.19700
C2304       C  0.83921638  0.69728904  0.42469933    -0.12300
C2305       C  0.84113923  0.71603368  0.41505647     0.04400
C2306       C  0.84255431  0.73363951  0.42685297    -0.24400
H2307       H  0.84633125  0.76334976  0.48868499     0.09500
H2308       H  0.84504157  0.76493740  0.45217081     0.13100
H2309       H  0.84083575  0.69842973  0.48632256     0.13000
H2310       H  0.83800680  0.68149478  0.45286329     0.12800
H2311       H  0.83814139  0.68349451  0.41593808     0.13300
H2312       H  0.84394122  0.74821502  0.41963625     0.15300
C2313       C  0.80619195  0.77834157  0.56646116    -0.04800
C2314       C  0.81075730  0.79895000  0.56863500    -0.04700
C2315       C  0.79550302  0.81358191  0.56723416    -0.22800
C2316       C  0.77552739  0.80779811  0.56345093     0.19400
C2317       C  0.77076410  0.78706308  0.56203643     0.16600
C2318       C  0.78603818  0.77253809  0.56376411    -0.17900
C2319       C  0.75091277  0.78114375  0.55813589    -0.19700
C2320       C  0.73595655  0.79564805  0.55499644    -0.12300
C2321       C  0.74057669  0.81632217  0.55575357     0.04400
C2322       C  0.76035713  0.82232523  0.56039133    -0.24400
H2323       H  0.82618669  0.80378483  0.57071508     0.09500
H2324       H  0.79942371  0.82941074  0.56846537     0.13100
H2325       H  0.78230381  0.75669268  0.56207771     0.13000
H2326       H  0.74704266  0.76528940  0.55705169     0.12800
H2327       H  0.72083161  0.79065043  0.55154206     0.13300
H2328       H  0.76406267  0.83824271  0.56109992     0.15300
C2329       C  0.48784590  0.85626208  0.69867113    -0.04800
C2330       C  0.47920391  0.85842283  0.71793040    -0.04700
C2331       C  0.45833044  0.85786166  0.72061799    -0.22800
C2332       C  0.44559401  0.85527742  0.70407409     0.19400
C2333       C  0.45401226  0.85253726  0.68466756     0.16600
C2334       C  0.47512131  0.85295473  0.68208076    -0.17900
C2335       C  0.44111500  0.84993359  0.66817276    -0.19700
C2336       C  0.42014284  0.85079540  0.67078928    -0.12300
C2337       C  0.41168842  0.85424385  0.68994551     0.04400
C2338       C  0.42457375  0.85600331  0.70658963    -0.24400
H2339       H  0.48861535  0.86080752  0.73099176     0.09500
H2340       H  0.45213561  0.85985572  0.73561491     0.13100
H2341       H  0.48157664  0.85125269  0.66715931     0.13000
H2342       H  0.44724095  0.84769350  0.65318689     0.12800
H2343       H  0.41055382  0.84932429  0.65772761     0.13300
H2344       H  0.41827375  0.85857280  0.72146872     0.15300
C2345       C  0.59343580  0.85346053  0.64081116    -0.04800
C2346       C  0.58646882  0.84556427  0.62242772    -0.04700
C2347       C  0.59931782  0.84423854  0.60561488    -0.22800
C2348       C  0.61936219  0.85091249  0.60680342     0.19400
C2349       C  0.62651076  0.85867620  0.62528558     0.16600
C2350       C  0.61363642  0.85971414  0.64211293    -0.17900
C2351       C  0.64634141  0.86568820  0.62659250    -0.19700
C2352       C  0.65896059  0.86525262  0.60974463    -0.12300
C2353       C  0.65218325  0.85760137  0.59118180     0.04400
C2354       C  0.63229848  0.85027986  0.58985307    -0.24400
H2355       H  0.57099507  0.84064917  0.62096793     0.09500
H2356       H  0.59348542  0.83825648  0.59160602     0.13100
H2357       H  0.61927560  0.86584415  0.65614841     0.13000
H2358       H  0.65205263  0.87174564  0.64062159     0.12800
H2359       H  0.67413765  0.87100933  0.61128619     0.13300
H2360       H  0.62681424  0.84443884  0.57564026     0.15300
C2361       C  0.49624600  0.71957957  0.82809052    -0.04800
C2362       C  0.48853786  0.69992133  0.82625078    -0.04700
C2363       C  0.46782768  0.69680657  0.82402670    -0.22800
C2364       C  0.45448531  0.71330465  0.82365573     0.19400
C2365       C  0.46221069  0.73315279  0.82475426     0.16600
C2366       C  0.48300546  0.73615632  0.82684402    -0.17900
C2367       C  0.44895017  0.74967612  0.82447891    -0.19700
C2368       C  0.42816969  0.74657356  0.82403046    -0.12300
C2369       C  0.42025150  0.72690260  0.82369765     0.04400
C2370       C  0.43353875  0.71030071  0.82295655    -0.24400
H2371       H  0.49846070  0.68690988  0.82711384     0.09500
H2372       H  0.46220491  0.68148828  0.82312938     0.13100
H2373       H  0.48879182  0.75139630  0.82813900     0.13000
H2374       H  0.45461789  0.76498833  0.82519234     0.12800
H2375       H  0.41825727  0.75962963  0.82445993     0.13300
H2376       H  0.42759863  0.69507472  0.82268536     0.15300
C2377       C  0.57177996  0.77754344  0.80151043    -0.04800
C2378       C  0.57179227  0.79790327  0.80764304    -0.04700
C2379       C  0.57247748  0.81336815  0.79339844    -0.22800
C2380       C  0.57298300  0.80871113  0.77278198     0.19400
C2381       C  0.57370348  0.78825670  0.76655458     0.16600
C2382       C  0.57324982  0.77286234  0.78091822    -0.17900
C2383       C  0.57404486  0.78347388  0.74601797    -0.19700
C2384       C  0.57265029  0.79874373  0.73173383    -0.12300
C2385       C  0.57105275  0.81910145  0.73768498     0.04400
C2386       C  0.57188008  0.82405553  0.75828061    -0.24400
H2387       H  0.57071886  0.80188711  0.82343318     0.09500
H2388       H  0.57199897  0.82894595  0.79848502     0.13100
H2389       H  0.57326711  0.75721759  0.77598460     0.13000
H2390       H  0.57470863  0.76787559  0.74099713     0.12800
H2391       H  0.57217565  0.79453736  0.71597810     0.13300
H2392       H  0.57063615  0.83970337  0.76305120     0.15300
C2393       C  0.84861334  0.51565426  0.69823290    -0.04800
C2394       C  0.85133726  0.50570358  0.71667304    -0.04700
C2395       C  0.85074167  0.48464582  0.71780149    -0.22800
C2396       C  0.84753097  0.47297208  0.70047855     0.19400
C2397       C  0.84423764  0.48267946  0.68188873     0.16600
C2398       C  0.84470131  0.50398771  0.68087982    -0.17900
C2399       C  0.84091026  0.47084160  0.66462049    -0.19700
C2400       C  0.84116977  0.44967551  0.66571464    -0.12300
C2401       C  0.84483527  0.43990281  0.68407349     0.04400
C2402       C  0.84786550  0.45174861  0.70143647    -0.24400
H2403       H  0.85419922  0.51423558  0.73030611     0.09500
H2404       H  0.85312820  0.47747336  0.73221305     0.13100
H2405       H  0.84253705  0.51142041  0.66656382     0.13000
H2406       H  0.83829628  0.47794641  0.65022183     0.12800
H2407       H  0.83876711  0.44093879  0.65211929     0.13300
H2408       H  0.85058471  0.44445177  0.71573399     0.15300
C2409       C  0.84596146  0.62652333  0.64973457    -0.04800
C2410       C  0.83607449  0.62143934  0.63173761    -0.04700
C2411       C  0.83455256  0.63542023  0.61603064    -0.22800
C2412       C  0.84289257  0.65479021  0.61798624     0.19400
C2413       C  0.85245089  0.66019393  0.63618916     0.16600
C2414       C  0.85384394  0.64612379  0.65190214    -0.17900
C2415       C  0.86075767  0.67950364  0.63829750    -0.19700
C2416       C  0.85975763  0.69331060  0.62252036    -0.12300
C2417       C  0.85043708  0.68817958  0.60422568     0.04400
C2418       C  0.84200562  0.66878647  0.60206809    -0.24400
H2419       H  0.82978494  0.60651263  0.62966780     0.09500
H2420       H  0.82705912  0.63098694  0.60225496     0.13100
H2421       H  0.86145390  0.65033765  0.66568833     0.13000
H2422       H  0.86815742  0.68390974  0.65213272     0.12800
H2423       H  0.86646696  0.70804995  0.62463068     0.13300
H2424       H  0.83482321  0.66457880  0.58805280     0.15300
C2425       C  0.70536829  0.51928663  0.82042809    -0.04800
C2426       C  0.72411220  0.50934660  0.81908478    -0.04700
C2427       C  0.72525190  0.48836535  0.81848216    -0.22800
C2428       C  0.70766747  0.47685250  0.81941321     0.19400
C2429       C  0.68860776  0.48652846  0.81985362     0.16600
C2430       C  0.68754593  0.50780622  0.82012618    -0.17900
C2431       C  0.67110351  0.47468441  0.82083391    -0.19700
C2432       C  0.67258157  0.45356447  0.82215798    -0.12300
C2433       C  0.69158259  0.44401713  0.82249693     0.04400
C2434       C  0.70899422  0.45580779  0.82064285    -0.24400
H2435       H  0.73803969  0.51782275  0.81904711     0.09500
H2436       H  0.73995102  0.48113643  0.81795740     0.13100
H2437       H  0.67301286  0.51533396  0.82112099     0.13000
H2438       H  0.65632919  0.48176216  0.82108624     0.12800
H2439       H  0.65892538  0.44476316  0.82344517     0.13300
H2440       H  0.72372927  0.44862016  0.82063531     0.15300
C2441       C  0.60277423  0.68009476  0.83529063    -0.04800
C2442       C  0.59588681  0.66104585  0.82895606    -0.04700
C2443       C  0.60931676  0.64490218  0.82634584    -0.22800
C2444       C  0.62992661  0.64747960  0.83002194     0.19400
C2445       C  0.63705767  0.66661139  0.83628474     0.16600
C2446       C  0.62345789  0.68277740  0.83890846    -0.17900
C2447       C  0.65765815  0.66920985  0.83995708    -0.19700
C2448       C  0.67101272  0.65296814  0.83776457    -0.12300
C2449       C  0.66408023  0.63380203  0.83180289     0.04400
C2450       C  0.64347505  0.63120254  0.82777439    -0.24400
H2451       H  0.58003030  0.65857484  0.82606586     0.09500
H2452       H  0.60355701  0.63037557  0.82153165     0.13100
H2453       H  0.62896643  0.69739040  0.84378975     0.13000
H2454       H  0.66342544  0.68374978  0.84471957     0.12800
H2455       H  0.68681390  0.65539137  0.84098686     0.13300
H2456       H  0.63793428  0.61648644  0.82325782     0.15300
C2457       C  0.75083992  0.59685386  0.78649378    -0.04800
C2458       C  0.74494902  0.59605451  0.76622162    -0.04700
C2459       C  0.75928401  0.59700546  0.75086064    -0.22800
C2460       C  0.77979644  0.59854182  0.75549636     0.19400
C2461       C  0.78592530  0.59983442  0.77578839     0.16600
C2462       C  0.77137163  0.59915518  0.79117882    -0.17900
C2463       C  0.80654909  0.60103259  0.78030631    -0.19700
C2464       C  0.82097624  0.60008357  0.76488933    -0.12300
C2465       C  0.81495255  0.59804281  0.74475438     0.04400
C2466       C  0.79429993  0.59791800  0.74016476    -0.24400
H2467       H  0.72924877  0.59424641  0.76220958     0.09500
H2468       H  0.75436666  0.59597432  0.73536576     0.13100
H2469       H  0.77609499  0.59966976  0.80675770     0.13000
H2470       H  0.81153274  0.60205081  0.79577438     0.12800
H2471       H  0.83681791  0.60016092  0.76877128     0.13300
H2472       H  0.78947461  0.59643773  0.72466627     0.15300
loop_ 
_geom_bond_atom_site_label_1 
_geom_bond_atom_site_label_2 
_geom_bond_distance 
_geom_bond_site_symmetry_2 
_ccdc_geom_bond_type 
O1            C4   1.271       .  A
O1           Cd6   2.462       .  S
C2           O11   1.263       .  A
C2            O7   1.270       .  A
C2          C535   1.463       .  S
O3            C9   1.271       .  A
O3           Cd6   2.488       .  S
C4           O12   1.267       .  A
C4         C2457   1.478       .  S
C5           O10   1.271       .  A
C5            O8   1.265       .  A
C5         C2425   1.478       .  S
Cd6          O13   2.415       .  S
Cd6          O12   2.429       .  S
Cd6          O11   2.381       .  S
Cd6           O7   2.517       .  S
Cd6          O10   2.500       .  S
Cd6           O8   2.406       .  S
C9           O13   1.265       .  A
C9         C2449   1.479       .  S
O14          C17   1.269       .  A
O14         Cd19   2.485       .  S
C15          O24   1.263       .  A
C15          O20   1.268       .  A
C15         C329   1.464       .  S
O16          C22   1.269       .  A
O16         Cd19   2.528       .  S
C17          O25   1.265       .  A
C17        C2465   1.476       .  S
C18          O23   1.270       .  A
C18          O21   1.266       .  A
C18        C2409   1.490       .  S
Cd19         O26   2.458       .  S
Cd19         O25   2.410       .  S
Cd19         O24   2.370       .  S
Cd19         O20   2.534       .  S
Cd19         O23   2.507       .  S
Cd19         O21   2.473       .  S
C22          O26   1.265       .  A
C22        C2393   1.490       .  S
O27          C30   1.267       .  A
O27         Cd32   2.472       .  S
C28          O37   1.261       .  A
C28          O33   1.265       .  A
C28         C522   1.463       .  S
O29          C35   1.266       .  A
O29         Cd32   2.468       .  S
C30          O38   1.265       .  A
C30        C2377   1.479       .  S
C31          O36   1.264       .  A
C31          O34   1.266       .  A
C31        C2441   1.480       .  S
Cd32         O39   2.452       .  S
Cd32         O38   2.442       .  S
Cd32         O37   2.403       .  S
Cd32         O33   2.520       .  S
Cd32         O36   2.453       .  S
Cd32         O34   2.486       .  S
C35          O39   1.266       .  A
C35        C2361   1.477       .  S
O40          C43   1.267       .  A
O40         Cd45   2.486       .  S
C41          O50   1.264       .  A
C41          O46   1.267       .  A
C41          C95   1.465       .  S
O42          C48   1.269       .  A
O42         Cd45   2.513       .  S
C43          O51   1.265       .  A
C43        C2385   1.479       .  S
C44          O49   1.269       .  A
C44          O47   1.264       .  A
C44        C2329   1.485       .  S
Cd45         O52   2.465       .  S
Cd45         O51   2.438       .  S
Cd45         O50   2.408       .  S
Cd45         O46   2.517       .  S
Cd45         O49   2.515       .  S
Cd45         O47   2.448       .  S
C48          O52   1.266       .  A
C48        C2345   1.490       .  S
O53          C56   1.269       .  A
O53         Cd58   2.483       .  S
C54          O63   1.264       .  A
C54          O59   1.269       .  A
C54         C314   1.458       .  S
O55          C61   1.271       .  A
O55         Cd58   2.512       .  S
C56          O64   1.266       .  A
C56        C2313   1.477       .  S
C57          O62   1.271       .  A
C57          O60   1.265       .  A
C57        C2297   1.485       .  S
Cd58         O65   2.449       .  S
Cd58         O64   2.416       .  S
Cd58         O63   2.360       .  S
Cd58         O59   2.506       .  S
Cd58         O62   2.529       .  S
Cd58         O60   2.428       .  S
C61          O65   1.266       .  A
C61        C2417   1.489       .  S
O66          C69   1.267       .  A
O66         Cd71   2.455       .  S
C67          O76   1.265       .  A
C67          O72   1.268       .  A
C67          C82   1.464       .  S
O68          C74   1.272       .  A
O68         Cd71   2.538       .  S
C69          O77   1.267       .  A
C69        C2321   1.476       .  S
C70          O75   1.272       .  A
C70          O73   1.264       .  A
C70        C2353   1.489       .  S
Cd71         O78   2.430       .  S
Cd71         O77   2.447       .  S
Cd71         O76   2.386       .  S
Cd71         O72   2.514       .  S
Cd71         O75   2.530       .  S
Cd71         O73   2.435       .  S
C74          O78   1.264       .  A
C74        C2289   1.488       .  S
O79          C82   1.278       .  A
O79         Cd84   2.509       .  S
C80          O89   1.264       .  A
C80          O85   1.277   1_545  A
C80         C171   1.468       .  S
O81          C87   1.270       .  A
O81         Cd84   2.414       .  S
C82          O90   1.264       .  A
C83          O88   1.270       .  A
C83          O86   1.269       .  A
C83        C2265   1.464       .  S
Cd84         O91   2.396       .  S
Cd84         O90   2.353       .  S
Cd84         O89   2.353   1_565  S
Cd84         O85   2.519       .  S
Cd84         O88   2.401       .  S
Cd84         O86   2.400       .  S
C87          O91   1.270       .  A
C87        C2257   1.466       .  S
O92          C95   1.281       .  A
O92         Cd97   2.482       .  S
C93         O102   1.268       .  A
C93          O98   1.281       .  A
C93         C158   1.464       .  S
O94         C100   1.274       .  A
O94         Cd97   2.361       .  S
C95         O103   1.268       .  A
C96         O101   1.274       .  A
C96          O99   1.273       .  A
C96        C2241   1.465       .  S
Cd97        O104   2.396       .  S
Cd97        O103   2.349       .  S
Cd97        O102   2.355   1_565  S
Cd97         O98   2.481   1_565  S
Cd97        O101   2.384       .  S
Cd97         O99   2.386       .  S
C100        O104   1.273       .  A
C100       C2273   1.463       .  S
O105        C108   1.266       .  A
O105       Cd110   2.476       .  S
C106        O115   1.263       .  A
C106        O111   1.266       .  A
C106        C197   1.467       .  S
O107        C113   1.267       .  A
O107       Cd110   2.506       .  S
C108        O116   1.266       .  A
C108       C2217   1.481       .  S
C109        O114   1.268       .  A
C109        O112   1.265       .  A
C109       C2401   1.488       .  S
Cd110       O117   2.471       .  S
Cd110       O116   2.462       .  S
Cd110       O115   2.396       .  S
Cd110       O111   2.539       .  S
Cd110       O114   2.507       .  S
Cd110       O112   2.473       .  S
C113        O117   1.266       .  A
C113       C2209   1.488       .  S
O118        C121   1.269       .  A
O118       Cd123   2.496       .  S
C119        O128   1.263       .  A
C119        O124   1.268       .  A
C119        C431   1.473       .  S
O120        C126   1.268       .  A
O120       Cd123   2.504       .  S
C121        O129   1.264       .  A
C121       C2225   1.481       .  S
C122        O127   1.267       .  A
C122        O125   1.265       .  A
C122       C2193   1.481       .  S
Cd123       O130   2.433       .  S
Cd123       O129   2.435       .  S
Cd123       O128   2.411       .  S
Cd123       O124   2.544       .  S
Cd123       O127   2.478       .  S
Cd123       O125   2.454       .  S
C126        O130   1.266       .  A
C126       C2433   1.481       .  S
O131        C134   1.270       .  A
O131       Cd136   2.492       .  S
C132        O141   1.263       .  A
C132        O137   1.270       .  A
C132        C420   1.469       .  S
O133        C139   1.269       .  A
O133       Cd136   2.485       .  S
C134        O142   1.264       .  A
C134       C2169   1.480       .  S
C135        O140   1.268       .  A
C135        O138   1.265       .  A
C135       C2161   1.481       .  S
Cd136       O143   2.451       .  S
Cd136       O142   2.433       .  S
Cd136       O141   2.391       .  S
Cd136       O137   2.542       .  S
Cd136       O140   2.483       .  S
Cd136       O138   2.452       .  S
C139        O143   1.267       .  A
C139       C2185   1.483       .  S
O144        C147   1.267       .  A
O144       Cd149   2.501       .  S
C145        O154   1.265       .  A
C145        O150   1.268       .  A
C145        C184   1.470       .  S
O146        C152   1.269       .  A
O146       Cd149   2.546       .  S
C147        O155   1.266       .  A
C147       C2137   1.485       .  S
C148        O153   1.269       .  A
C148        O151   1.266       .  A
C148       C2201   1.489       .  S
Cd149       O156   2.414       .  S
Cd149       O155   2.457       .  S
Cd149       O154   2.404       .  S
Cd149       O150   2.537       .  S
Cd149       O153   2.528       .  S
Cd149       O151   2.444       .  S
C152        O156   1.263       .  A
C152       C2129   1.487       .  S
O157        C160   1.266       .  A
O157       Cd162   2.464       .  S
C158        O167   1.264       .  A
C158        O163   1.266       .  A
O159        C165   1.268       .  A
O159       Cd162   2.495       .  S
C160        O168   1.266       .  A
C160       C2177   1.478       .  S
C161        O166   1.267       .  A
C161        O164   1.266       .  A
C161       C2113   1.487       .  S
Cd162       O169   2.449       .  S
Cd162       O168   2.458       .  S
Cd162       O167   2.412       .  S
Cd162       O163   2.507       .  S
Cd162       O166   2.493       .  S
Cd162       O164   2.472       .  S
C165        O169   1.264       .  A
C165       C2097   1.481       .  S
O170        C173   1.271       .  A
O170       Cd175   2.501       .  S
C171        O180   1.264       .  A
C171        O176   1.270       .  A
O172        C178   1.271       .  A
O172       Cd175   2.535       .  S
C173        O181   1.266       .  A
C173       C2145   1.484       .  S
C174        O179   1.272       .  A
C174        O177   1.265       .  A
C174       C2073   1.487       .  S
Cd175       O182   2.450       .  S
Cd175       O181   2.432       .  S
Cd175       O180   2.388       .  S
Cd175       O176   2.537       .  S
Cd175       O179   2.522       .  S
Cd175       O177   2.435       .  S
C178        O182   1.266       .  A
C178       C2105   1.493       .  S
O183        C186   1.282   1_655  A
O183       Cd188   2.501       .  S
C184        O193   1.267       .  A
C184        O189   1.282       .  A
O185        C191   1.272       .  A
O185       Cd188   2.363       .  S
C186        O194   1.268   1_455  A
C186        C210   1.468       .  S
C187        O192   1.272       .  A
C187        O190   1.274       .  A
C187       C2049   1.472       .  S
Cd188       O195   2.440       .  S
Cd188       O194   2.350       .  S
Cd188       O193   2.343       .  S
Cd188       O189   2.515       .  S
Cd188       O192   2.396       .  S
Cd188       O190   2.430       .  S
C191        O195   1.275       .  A
C191       C2065   1.471       .  S
O196        C199   1.281       .  A
O196       Cd201   2.512       .  S
C197        O206   1.266       .  A
C197        O202   1.281       .  A
O198        C204   1.272       .  A
O198       Cd201   2.374       .  S
C199        O207   1.266       .  A
C199        C262   1.468   1_655  S
C200        O205   1.272       .  A
C200        O203   1.272       .  A
C200       C2057   1.469       .  S
Cd201       O208   2.417       .  S
Cd201       O207   2.346       .  S
Cd201       O206   2.342       .  S
Cd201       O202   2.513       .  S
Cd201       O205   2.409       .  S
Cd201       O203   2.404       .  S
C204        O208   1.272       .  A
C204       C2033   1.466       .  S
O209        C212   1.267       .  A
O209       Cd214   2.470       .  S
C210        O219   1.262       .  A
C210        O215   1.266       .  A
O211        C217   1.267       .  A
O211       Cd214   2.497       .  S
C212        O220   1.267       .  A
C212       C1993   1.481       .  S
C213        O218   1.267       .  A
C213        O216   1.265       .  A
C213       C1985   1.484       .  S
Cd214       O221   2.448       .  S
Cd214       O220   2.461       .  S
Cd214       O219   2.414       .  S
Cd214       O215   2.537       .  S
Cd214       O218   2.507       .  S
Cd214       O216   2.448       .  S
C217        O221   1.265       .  A
C217       C2017   1.483       .  S
O222        C225   1.272       .  A
O222       Cd227   2.492       .  S
C223        O232   1.265       .  A
C223        O228   1.273       .  A
C223        C288   1.472       .  S
O224        C230   1.273       .  A
O224       Cd227   2.519       .  S
C225        O233   1.266       .  A
C225       C2001   1.482       .  S
C226        O231   1.272       .  A
C226        O229   1.267       .  A
C226       C1969   1.489       .  S
Cd227       O234   2.426       .  S
Cd227       O233   2.426       .  S
Cd227       O232   2.377       .  S
Cd227       O228   2.541       .  S
Cd227       O231   2.527       .  S
Cd227       O229   2.428       .  S
C230        O234   1.265       .  A
C230       C1953   1.487       .  S
O235        C238   1.267       .  A
O235       Cd240   2.478       .  S
C236        O245   1.263       .  A
C236        O241   1.267       .  A
C236        C301   1.468       .  S
O237        C243   1.268       .  A
O237       Cd240   2.505       .  S
C238        O246   1.266       .  A
C238       C1929   1.481       .  S
C239        O244   1.268       .  A
C239        O242   1.264       .  A
C239       C2089   1.482       .  S
Cd240       O247   2.455       .  S
Cd240       O246   2.455       .  S
Cd240       O245   2.401       .  S
Cd240       O241   2.535       .  S
Cd240       O244   2.499       .  S
Cd240       O242   2.449       .  S
C243        O247   1.267       .  A
C243       C1961   1.487       .  S
O248        C251   1.272       .  A
O248       Cd253   2.489       .  S
C249        O258   1.263       .  A
C249        O254   1.271       .  A
C249        C795   1.466       .  S
O250        C256   1.270       .  A
O250       Cd253   2.482       .  S
C251        O259   1.265       .  A
C251       C1937   1.479       .  S
C252        O257   1.270       .  A
C252        O255   1.267       .  A
C252       C1913   1.485       .  S
Cd253       O260   2.433       .  S
Cd253       O259   2.411       .  S
Cd253       O258   2.370       .  S
Cd253       O254   2.543       .  S
Cd253       O257   2.502       .  S
Cd253       O255   2.434       .  S
C256        O260   1.265       .  A
C256       C2153   1.480       .  S
O261        C264   1.268       .  A
O261       Cd266   2.470       .  S
C262        O271   1.264       .  A
C262        O267   1.267       .  A
O263        C269   1.270       .  A
O263       Cd266   2.535       .  S
C264        O272   1.266       .  A
C264       C1897   1.480       .  S
C265        O270   1.269       .  A
C265        O268   1.265       .  A
C265       C2009   1.486       .  S
Cd266       O273   2.425       .  S
Cd266       O272   2.461       .  S
Cd266       O271   2.401       .  S
Cd266       O267   2.539       .  S
Cd266       O270   2.518       .  S
Cd266       O268   2.441       .  S
C269        O273   1.264       .  A
C269       C1889   1.486       .  S
O274        C277   1.267       .  A
O274       Cd279   2.463       .  S
C275        O284   1.263       .  A
C275        O280   1.268       .  A
C275        C782   1.470       .  S
O276        C282   1.269       .  A
O276       Cd279   2.520       .  S
C277        O285   1.266       .  A
C277       C1905   1.481       .  S
C278        O283   1.269       .  A
C278        O281   1.264       .  A
C278       C1865   1.486       .  S
Cd279       O286   2.435       .  S
Cd279       O285   2.473       .  S
Cd279       O284   2.404       .  S
Cd279       O280   2.544       .  S
Cd279       O283   2.512       .  S
Cd279       O281   2.453       .  S
C282        O286   1.265       .  A
C282       C1921   1.486       .  S
O287        C290   1.280       .  A
O287       Cd292   2.524       .  S
C288        O297   1.265       .  A
C288        O293   1.280       .  A
O289        C295   1.271       .  A
O289       Cd292   2.408       .  S
C290        O298   1.265       .  A
C290        C366   1.471       .  S
C291        O296   1.270       .  A
C291        O294   1.271       .  A
C291       C1833   1.465       .  S
Cd292       O299   2.373       .  S
Cd292       O298   2.352       .  S
Cd292       O297   2.355   1_565  S
Cd292       O293   2.534   1_565  S
Cd292       O296   2.373       .  S
Cd292       O294   2.417       .  S
C295        O299   1.272       .  A
C295       C1849   1.464       .  S
O300        C303   1.279       .  A
O300       Cd305   2.529       .  S
C301        O310   1.264       .  A
C301        O306   1.279       .  A
O302        C308   1.269       .  A
O302       Cd305   2.403       .  S
C303        O311   1.264       .  A
C303        C353   1.469       .  S
C304        O309   1.270       .  A
C304        O307   1.271       .  A
C304       C1857   1.464       .  S
Cd305       O312   2.422       .  S
Cd305       O311   2.351       .  S
Cd305       O310   2.360   1_565  S
Cd305       O306   2.521   1_565  S
Cd305       O309   2.385       .  S
Cd305       O307   2.412       .  S
C308        O312   1.271       .  A
C308       C2233   1.468       .  S
O313        C316   1.280   1_655  A
O313       Cd318   2.502       .  S
C314        O323   1.264       .  A
C314        O319   1.279       .  A
O315        C321   1.270       .  A
O315       Cd318   2.399       .  S
C316        O324   1.265   1_455  A
C316        C392   1.463       .  S
C317        O322   1.269       .  A
C317        O320   1.271       .  A
C317       C1817   1.465       .  S
Cd318       O325   2.411       .  S
Cd318       O324   2.330       .  S
Cd318       O323   2.322       .  S
Cd318       O319   2.497       .  S
Cd318       O322   2.354       .  S
Cd318       O320   2.444       .  S
C321        O325   1.272       .  A
C321       C1801   1.467       .  S
O326        C329   1.279       .  A
O326       Cd331   2.521       .  S
C327        O336   1.265   1_455  A
C327        O332   1.279   1_455  A
C327        C405   1.463       .  S
O328        C334   1.269       .  A
O328       Cd331   2.376       .  S
C329        O337   1.263       .  A
C330        O335   1.270       .  A
C330        O333   1.271       .  A
C330       C1825   1.463       .  S
Cd331       O338   2.420       .  S
Cd331       O337   2.326       .  S
Cd331       O336   2.350       .  S
Cd331       O332   2.490       .  S
Cd331       O335   2.389       .  S
Cd331       O333   2.399       .  S
C334        O338   1.272       .  A
C334       C2025   1.464       .  S
O339        C342   1.269       .  A
O339       Cd344   2.455       .  S
C340        O349   1.264       .  A
C340        O345   1.267       .  A
C340        C667   1.469       .  S
O341        C347   1.270       .  A
O341       Cd344   2.502       .  S
C342        O350   1.266       .  A
C342       C1785   1.473       .  S
C343        O348   1.269       .  A
C343        O346   1.263       .  A
C343       C2369   1.478       .  S
Cd344       O351   2.433       .  S
Cd344       O350   2.420       .  S
Cd344       O349   2.417       .  S
Cd344       O345   2.522       .  S
Cd344       O348   2.495       .  S
Cd344       O346   2.431       .  S
C347        O351   1.266       .  A
C347       C1777   1.484       .  S
O352        C355   1.268       .  A
O352       Cd357   2.466       .  S
C353        O362   1.262       .  A
C353        O358   1.268       .  A
O354        C360   1.267       .  A
O354       Cd357   2.488       .  S
C355        O363   1.265       .  A
C355       C1793   1.476       .  S
C356        O361   1.266       .  A
C356        O359   1.266       .  A
C356       C1753   1.479       .  S
Cd357       O364   2.454       .  S
Cd357       O363   2.436       .  S
Cd357       O362   2.393       .  S
Cd357       O358   2.545       .  S
Cd357       O361   2.468       .  S
Cd357       O359   2.466       .  S
C360        O364   1.266       .  A
C360       C2337   1.483       .  S
O365        C368   1.269       .  A
O365       Cd370   2.460       .  S
C366        O375   1.263       .  A
C366        O371   1.268       .  A
O367        C373   1.268       .  A
O367       Cd370   2.468       .  S
C368        O376   1.265       .  A
C368       C1737   1.479       .  S
C369        O374   1.268       .  A
C369        O372   1.265       .  A
C369       C1721   1.482       .  S
Cd370       O377   2.440       .  S
Cd370       O376   2.454       .  S
Cd370       O375   2.400       .  S
Cd370       O371   2.546       .  S
Cd370       O374   2.502       .  S
Cd370       O372   2.433       .  S
C373        O377   1.266       .  A
C373       C1761   1.478       .  S
O378        C381   1.269       .  A
O378       Cd383   2.463       .  S
C379        O388   1.263       .  A
C379        O384   1.268       .  A
C379        C654   1.463       .  S
O380        C386   1.271       .  A
O380       Cd383   2.510       .  S
C381        O389   1.268       .  A
C381       C1713   1.477       .  S
C382        O387   1.270       .  A
C382        O385   1.266       .  A
C382       C1769   1.485       .  S
Cd383       O390   2.434       .  S
Cd383       O389   2.429       .  S
Cd383       O388   2.380       .  S
Cd383       O384   2.519       .  S
Cd383       O387   2.509       .  S
Cd383       O385   2.432       .  S
C386        O390   1.264       .  A
C386       C1873   1.484       .  S
O391        C394   1.267       .  A
O391       Cd396   2.471       .  S
C392        O401   1.262       .  A
C392        O397   1.267       .  A
O393        C399   1.265       .  A
O393       Cd396   2.472       .  S
C394        O402   1.265       .  A
C394       C1745   1.477       .  S
C395        O400   1.266       .  A
C395        O398   1.268       .  A
C395       C1689   1.484       .  S
Cd396       O403   2.453       .  S
Cd396       O402   2.444       .  S
Cd396       O401   2.389       .  S
Cd396       O397   2.532       .  S
Cd396       O400   2.472       .  S
Cd396       O398   2.477       .  S
C399        O403   1.264       .  A
C399       C1673   1.477       .  S
O404        C407   1.269       .  A
O404       Cd409   2.462       .  S
C405        O414   1.264       .  A
C405        O410   1.267       .  A
O406        C412   1.271       .  A
O406       Cd409   2.506       .  S
C407        O415   1.266       .  A
C407       C1705   1.475       .  S
C408        O413   1.271       .  A
C408        O411   1.265       .  A
C408       C1881   1.486       .  S
Cd409       O416   2.430       .  S
Cd409       O415   2.419       .  S
Cd409       O414   2.402       .  S
Cd409       O410   2.510       .  S
Cd409       O413   2.517       .  S
Cd409       O411   2.432       .  S
C412        O416   1.265       .  A
C412       C1697   1.484       .  S
O417        C420   1.281       .  A
O417       Cd422   2.518       .  S
C418        O427   1.266       .  A
C418        O423   1.282       .  A
C418        C444   1.465   1_556  S
O419        C425   1.272       .  A
O419       Cd422   2.382       .  S
C420        O428   1.266       .  A
C421        O426   1.271       .  A
C421        O424   1.273       .  A
C421       C1641   1.469       .  S
Cd422       O429   2.413       .  S
Cd422       O428   2.339       .  S
Cd422       O427   2.342       .  S
Cd422       O423   2.500       .  S
Cd422       O426   2.384       .  S
Cd422       O424   2.429       .  S
C425        O429   1.274       .  A
C425       C1665   1.468       .  S
O430        C433   1.280       .  A
O430       Cd435   2.523       .  S
C431        O440   1.265       .  A
C431        O436   1.280       .  A
O432        C438   1.270       .  A
O432       Cd435   2.410       .  S
C433        O441   1.265       .  A
C433        C470   1.469   1_556  S
C434        O439   1.272       .  A
C434        O437   1.272       .  A
C434       C1633   1.465       .  S
Cd435       O442   2.405       .  S
Cd435       O441   2.350       .  S
Cd435       O440   2.368       .  S
Cd435       O436   2.528       .  S
Cd435       O439   2.385       .  S
Cd435       O437   2.402       .  S
C438        O442   1.272       .  A
C438       C1657   1.469       .  S
O443        C446   1.265       .  A
O443       Cd448   2.463       .  S
C444        O453   1.265       .  A
C444        O449   1.266       .  A
O445        C451   1.269       .  A
O445       Cd448   2.519       .  S
C446        O454   1.266       .  A
C446       C1601   1.480       .  S
C447        O452   1.268       .  A
C447        O450   1.265       .  A
C447       C1609   1.489       .  S
Cd448       O455   2.449       .  S
Cd448       O454   2.466       .  S
Cd448       O453   2.405       .  S
Cd448       O449   2.516       .  S
Cd448       O452   2.525       .  S
Cd448       O450   2.456       .  S
C451        O455   1.264       .  A
C451       C1577   1.486       .  S
O456        C459   1.269       .  A
O456       Cd461   2.492       .  S
C457        O466   1.263       .  A
C457        O462   1.269       .  A
C457        C550   1.468       .  S
O458        C464   1.268       .  A
O458       Cd461   2.484       .  S
C459        O467   1.266       .  A
C459       C1593   1.482       .  S
C460        O465   1.268       .  A
C460        O463   1.265       .  A
C460       C1545   1.483       .  S
Cd461       O468   2.459       .  S
Cd461       O467   2.438       .  S
Cd461       O466   2.395       .  S
Cd461       O462   2.530       .  S
Cd461       O465   2.490       .  S
Cd461       O463   2.456       .  S
C464        O468   1.267       .  A
C464       C1561   1.485       .  S
O469        C472   1.267       .  A
O469       Cd474   2.475       .  S
C470        O479   1.263       .  A
C470        O475   1.267       .  A
O471        C477   1.268       .  A
O471       Cd474   2.484       .  S
C472        O480   1.266       .  A
C472       C1529   1.478       .  S
C473        O478   1.268       .  A
C473        O476   1.265       .  A
C473       C1521   1.487       .  S
Cd474       O481   2.482       .  S
Cd474       O480   2.443       .  S
Cd474       O479   2.399       .  S
Cd474       O475   2.541       .  S
Cd474       O478   2.506       .  S
Cd474       O476   2.477       .  S
C477        O481   1.267       .  A
C477       C1617   1.488       .  S
O482        C485   1.268       .  A
O482       Cd487   2.546       .  S
C483        O492   1.264       .  A
C483        O488   1.268       .  A
C483       C1537   1.478       .  S
O484        C490   1.268       .  A
O484       Cd487   2.487       .  S
C485        O493   1.262       .  A
C485        C847   1.464       .  S
C486        O491   1.267       .  A
C486        O489   1.264       .  A
C486       C1481   1.486       .  S
Cd487       O494   2.472       .  S
Cd487       O493   2.366       .  S
Cd487       O492   2.424       .  S
Cd487       O488   2.501       .  S
Cd487       O491   2.506       .  S
Cd487       O489   2.461       .  S
C490        O494   1.268       .  A
C490       C1505   1.487       .  S
O495        C498   1.268       .  A
O495       Cd500   2.486       .  S
C496        O505   1.263       .  A
C496        O501   1.268       .  A
C496        C561   1.465       .  S
O497        C503   1.270       .  A
O497       Cd500   2.510       .  S
C498        O506   1.266       .  A
C498       C1473   1.480       .  S
C499        O504   1.269       .  A
C499        O502   1.265       .  A
C499       C1569   1.486       .  S
Cd500       O507   2.432       .  S
Cd500       O506   2.438       .  S
Cd500       O505   2.388       .  S
Cd500       O501   2.528       .  S
Cd500       O504   2.513       .  S
Cd500       O502   2.447       .  S
C503        O507   1.265       .  A
C503       C2081   1.484       .  S
O508        C511   1.267       .  A
O508       Cd513   2.488       .  S
C509        O518   1.264       .  A
C509        O514   1.268       .  A
C509        C836   1.468       .  S
O510        C516   1.269       .  A
O510       Cd513   2.522       .  S
C511        O519   1.266       .  A
C511       C1465   1.481       .  S
C512        O517   1.269       .  A
C512        O515   1.264       .  A
C512       C2121   1.488       .  S
Cd513       O520   2.449       .  S
Cd513       O519   2.446       .  S
Cd513       O518   2.393       .  S
Cd513       O514   2.531       .  S
Cd513       O517   2.531       .  S
Cd513       O515   2.436       .  S
C516        O520   1.266       .  A
C516       C1497   1.489       .  S
O521        C524   1.278       .  A
O521       Cd526   2.508       .  S
C522        O531   1.265       .  A
C522        O527   1.279       .  A
O523        C529   1.272       .  A
O523       Cd526   2.418       .  S
C524        O532   1.265       .  A
C524        C626   1.465   1_556  S
C525        O530   1.271       .  A
C525        O528   1.271       .  A
C525       C1433   1.469       .  S
Cd526       O533   2.391       .  S
Cd526       O532   2.350       .  S
Cd526       O531   2.348       .  S
Cd526       O527   2.496       .  S
Cd526       O530   2.378       .  S
Cd526       O528   2.439       .  S
C529        O533   1.271       .  A
C529       C1449   1.467       .  S
O534        C537   1.276       .  A
O534       Cd539   2.505       .  S
C535        O544   1.264       .  A
C535        O540   1.275       .  A
O536        C542   1.271       .  A
O536       Cd539   2.429       .  S
C537        O545   1.263       .  A
C537        C639   1.458   1_556  S
C538        O543   1.269       .  A
C538        O541   1.268       .  A
C538       C1457   1.467       .  S
Cd539       O546   2.384       .  S
Cd539       O545   2.339       .  S
Cd539       O544   2.352       .  S
Cd539       O540   2.507       .  S
Cd539       O543   2.415       .  S
Cd539       O541   2.411       .  S
C542        O546   1.269       .  A
C542       C1625   1.467       .  S
O547        C550   1.278       .  A
O547       Cd552   2.517   1_545  S
C548        O557   1.264       .  A
C548        O553   1.279       .  A
C548        C600   1.466       .  S
O549        C555   1.270       .  A
O549       Cd552   2.398       .  S
C550        O558   1.265       .  A
C551        O556   1.270       .  A
C551        O554   1.271       .  A
C551       C1401   1.466       .  S
Cd552       O559   2.390       .  S
Cd552       O558   2.363   1_565  S
Cd552       O557   2.342       .  S
Cd552       O553   2.518       .  S
Cd552       O556   2.403       .  S
Cd552       O554   2.405       .  S
C555        O559   1.270       .  A
C555       C1425   1.463       .  S
O560        C563   1.282       .  A
O560       Cd565   2.516       .  S
C561        O570   1.266       .  A
C561        O566   1.281       .  A
O562        C568   1.271       .  A
O562       Cd565   2.381       .  S
C563        O571   1.265       .  A
C563        C574   1.466       .  S
C564        O569   1.271       .  A
C564        O567   1.273       .  A
C564       C2249   1.466       .  S
Cd565       O572   2.412       .  S
Cd565       O571   2.328       .  S
Cd565       O570   2.335   1_565  S
Cd565       O566   2.503   1_565  S
Cd565       O569   2.367       .  S
Cd565       O567   2.419       .  S
C568        O572   1.273       .  A
C568       C1417   1.466       .  S
O573        C576   1.268       .  A
O573       Cd578   2.464       .  S
C574        O583   1.264       .  A
C574        O579   1.268       .  A
O575        C581   1.269       .  A
O575       Cd578   2.498       .  S
C576        O584   1.266       .  A
C576       C1385   1.477       .  S
C577        O582   1.270       .  A
C577        O580   1.265       .  A
C577       C2281   1.491       .  S
Cd578       O585   2.473       .  S
Cd578       O584   2.434       .  S
Cd578       O583   2.384       .  S
Cd578       O579   2.541       .  S
Cd578       O582   2.545       .  S
Cd578       O580   2.448       .  S
C581        O585   1.266       .  A
C581       C1369   1.488       .  S
O586        C589   1.267       .  A
O586       Cd591   2.465       .  S
C587        O596   1.263       .  A
C587        O592   1.268       .  A
C587        C691   1.463       .  S
O588        C594   1.269       .  A
O588       Cd591   2.511       .  S
C589        O597   1.267       .  A
C589       C1393   1.480       .  S
C590        O595   1.269       .  A
C590        O593   1.265       .  A
C590       C1353   1.483       .  S
Cd591       O598   2.436       .  S
Cd591       O597   2.465       .  S
Cd591       O596   2.389       .  S
Cd591       O592   2.517       .  S
Cd591       O595   2.486       .  S
Cd591       O593   2.452       .  S
C594        O598   1.265       .  A
C594       C2305   1.484       .  S
O599        C602   1.269       .  A
O599       Cd604   2.481       .  S
C600        O609   1.263       .  A
C600        O605   1.268       .  A
O601        C607   1.270       .  A
O601       Cd604   2.513       .  S
C602        O610   1.266       .  A
C602       C1345   1.479       .  S
C603        O608   1.269       .  A
C603        O606   1.267       .  A
C603       C1377   1.488       .  S
Cd604       O611   2.430       .  S
Cd604       O610   2.417       .  S
Cd604       O609   2.386       .  S
Cd604       O605   2.531       .  S
Cd604       O608   2.496       .  S
Cd604       O606   2.471       .  S
C607        O611   1.263       .  A
C607       C1329   1.483       .  S
O612        C615   1.268       .  A
O612       Cd617   2.465       .  S
C613        O622   1.264       .  A
C613        O618   1.269       .  A
C613        C680   1.463       .  S
O614        C620   1.270       .  A
O614       Cd617   2.488       .  S
C615        O623   1.265       .  A
C615       C1313   1.473       .  S
C616        O621   1.271       .  A
C616        O619   1.264       .  A
C616       C1489   1.487       .  S
Cd617       O624   2.450       .  S
Cd617       O623   2.417       .  S
Cd617       O622   2.367       .  S
Cd617       O618   2.519       .  S
Cd617       O621   2.527       .  S
Cd617       O619   2.430       .  S
C620        O624   1.266       .  A
C620       C1361   1.484       .  S
O625        C628   1.268       .  A
O625       Cd630   2.503       .  S
C626        O635   1.263       .  A
C626        O631   1.268       .  A
O627        C633   1.269       .  A
O627       Cd630   2.496       .  S
C628        O636   1.266       .  A
C628       C1337   1.481       .  S
C629        O634   1.269       .  A
C629        O632   1.265       .  A
C629       C1273   1.493       .  S
Cd630       O637   2.491       .  S
Cd630       O636   2.429       .  S
Cd630       O635   2.390       .  S
Cd630       O631   2.523       .  S
Cd630       O634   2.518       .  S
Cd630       O632   2.481       .  S
C633        O637   1.267       .  A
C633       C1289   1.491       .  S
O638        C641   1.270       .  A
O638       Cd643   2.466       .  S
C639        O648   1.263       .  A
C639        O644   1.268       .  A
O640        C646   1.271       .  A
O640       Cd643   2.522       .  S
C641        O649   1.268       .  A
C641       C1305   1.474       .  S
C642        O647   1.272       .  A
C642        O645   1.265       .  A
C642       C1297   1.489       .  S
Cd643       O650   2.446       .  S
Cd643       O649   2.400       .  S
Cd643       O648   2.366       .  S
Cd643       O644   2.509       .  S
Cd643       O647   2.516       .  S
Cd643       O645   2.450       .  S
C646        O650   1.265       .  A
C646       C1513   1.489       .  S
O651        C654   1.278       .  A
O651       Cd656   2.512       .  S
C652        O661   1.264       .  A
C652        O657   1.278       .  A
C652        C704   1.465   1_556  S
O653        C659   1.268       .  A
O653       Cd656   2.398       .  S
C654        O662   1.263       .  A
C655        O660   1.271       .  A
C655        O658   1.271       .  A
C655       C1265   1.462       .  S
Cd656       O663   2.420       .  S
Cd656       O662   2.344       .  S
Cd656       O661   2.358       .  S
Cd656       O657   2.511       .  S
Cd656       O660   2.383       .  S
Cd656       O658   2.393       .  S
C659        O663   1.270       .  A
C659       C1241   1.466       .  S
O664        C667   1.281       .  A
O664       Cd669   2.503       .  S
C665        O674   1.267       .  A
C665        O670   1.282       .  A
C665        C730   1.467   1_556  S
O666        C672   1.271       .  A
O666       Cd669   2.351       .  S
C667        O675   1.267       .  A
C668        O673   1.272       .  A
C668        O671   1.274       .  A
C668       C1441   1.468       .  S
Cd669       O676   2.425       .  S
Cd669       O675   2.364       .  S
Cd669       O674   2.335       .  S
Cd669       O670   2.501       .  S
Cd669       O673   2.375       .  S
Cd669       O671   2.417       .  S
C672        O676   1.273       .  A
C672       C1257   1.464       .  S
O677        C680   1.281       .  A
O677       Cd682   2.509       .  S
C678        O687   1.266   1_455  A
C678        O683   1.281   1_455  A
C678        C717   1.466       .  S
O679        C685   1.271       .  A
O679       Cd682   2.381       .  S
C680        O688   1.266       .  A
C681        O686   1.272       .  A
C681        O684   1.273       .  A
C681       C1217   1.466       .  S
Cd682       O689   2.417       .  S
Cd682       O688   2.331       .  S
Cd682       O687   2.341       .  S
Cd682       O683   2.507       .  S
Cd682       O686   2.384       .  S
Cd682       O684   2.406       .  S
C685        O689   1.272       .  A
C685       C1225   1.466       .  S
O690        C693   1.279       .  A
O690       Cd695   2.496       .  S
C691        O700   1.266       .  A
C691        O696   1.279       .  A
O692        C698   1.272       .  A
O692       Cd695   2.399       .  S
C693        O701   1.266       .  A
C693        C756   1.462   1_655  S
C694        O699   1.273       .  A
C694        O697   1.271       .  A
C694       C1809   1.467       .  S
Cd695       O702   2.385       .  S
Cd695       O701   2.336       .  S
Cd695       O700   2.348       .  S
Cd695       O696   2.498       .  S
Cd695       O699   2.405       .  S
Cd695       O697   2.390       .  S
C698        O702   1.271       .  A
C698       C1233   1.464       .  S
O703        C706   1.270       .  A
O703       Cd708   2.449       .  S
C704        O713   1.264       .  A
C704        O709   1.268       .  A
O705        C711   1.271       .  A
O705       Cd708   2.499       .  S
C706        O714   1.268       .  A
C706       C1185   1.471       .  S
C707        O712   1.272       .  A
C707        O710   1.263       .  A
C707       C1169   1.486       .  S
Cd708       O715   2.467       .  S
Cd708       O714   2.416       .  S
Cd708       O713   2.393       .  S
Cd708       O709   2.518       .  S
Cd708       O712   2.532       .  S
Cd708       O710   2.415       .  S
C711        O715   1.266       .  A
C711       C1193   1.487       .  S
O716        C719   1.267       .  A
O716       Cd721   2.459       .  S
C717        O726   1.263       .  A
C717        O722   1.267       .  A
O718        C724   1.269       .  A
O718       Cd721   2.515       .  S
C719        O727   1.266       .  A
C719       C1177   1.474       .  S
C720        O725   1.268       .  A
C720        O723   1.265       .  A
C720       C1145   1.483       .  S
Cd721       O728   2.448       .  S
Cd721       O727   2.435       .  S
Cd721       O726   2.395       .  S
Cd721       O722   2.532       .  S
Cd721       O725   2.507       .  S
Cd721       O723   2.442       .  S
C724        O728   1.265       .  A
C724       C1129   1.487       .  S
O729        C732   1.268       .  A
O729       Cd734   2.476       .  S
C730        O739   1.263       .  A
C730        O735   1.267       .  A
O731        C737   1.270       .  A
O731       Cd734   2.541       .  S
C732        O740   1.267       .  A
C732       C1121   1.484       .  S
C733        O738   1.269       .  A
C733        O736   1.266       .  A
C733       C1201   1.492       .  S
Cd734       O741   2.463       .  S
Cd734       O740   2.461       .  S
Cd734       O739   2.400       .  S
Cd734       O735   2.540       .  S
Cd734       O738   2.511       .  S
Cd734       O736   2.490       .  S
C737        O741   1.264       .  A
C737       C1281   1.493       .  S
O742        C745   1.268       .  A
O742       Cd747   2.497       .  S
C743        O752   1.263       .  A
C743        O748   1.267       .  A
C743        C823   1.472       .  S
O744        C750   1.266       .  A
O744       Cd747   2.480       .  S
C745        O753   1.265       .  A
C745       C1113   1.484       .  S
C746        O751   1.267       .  A
C746        O749   1.265       .  A
C746       C1321   1.483       .  S
Cd747       O754   2.466       .  S
Cd747       O753   2.450       .  S
Cd747       O752   2.416       .  S
Cd747       O748   2.542       .  S
Cd747       O751   2.498       .  S
Cd747       O749   2.446       .  S
C750        O754   1.266       .  A
C750       C1105   1.482       .  S
O755        C758   1.269       .  A
O755       Cd760   2.467       .  S
C756        O765   1.261       .  A
C756        O761   1.267       .  A
O757        C763   1.267       .  A
O757       Cd760   2.486       .  S
C758        O766   1.266       .  A
C758       C1089   1.475       .  S
C759        O764   1.268       .  A
C759        O762   1.264       .  A
C759       C1681   1.476       .  S
Cd760       O767   2.437       .  S
Cd760       O766   2.423       .  S
Cd760       O765   2.384       .  S
Cd760       O761   2.532       .  S
Cd760       O764   2.479       .  S
Cd760       O762   2.426       .  S
C763        O767   1.266       .  A
C763       C1153   1.480       .  S
O768        C771   1.270       .  A
O768       Cd773   2.476       .  S
C769        O778   1.263       .  A
C769        O774   1.270       .  A
C769        C808   1.464       .  S
O770        C776   1.270       .  A
O770       Cd773   2.510       .  S
C771        O779   1.266       .  A
C771       C1081   1.477       .  S
C772        O777   1.271       .  A
C772        O775   1.266       .  A
C772       C1097   1.479       .  S
Cd773       O780   2.411       .  S
Cd773       O779   2.430       .  S
Cd773       O778   2.365       .  S
Cd773       O774   2.534       .  S
Cd773       O777   2.486       .  S
Cd773       O775   2.414       .  S
C776        O780   1.265       .  A
C776       C1729   1.481       .  S
O781        C784   1.282       .  A
O781       Cd786   2.489       .  S
C782        O791   1.267       .  A
C782        O787   1.282       .  A
O783        C789   1.273       .  A
O783       Cd786   2.364       .  S
C784        O792   1.268       .  A
C784        C886   1.466   1_556  S
C785        O790   1.272       .  A
C785        O788   1.274       .  A
C785       C1065   1.465       .  S
Cd786       O793   2.407       .  S
Cd786       O792   2.348       .  S
Cd786       O791   2.347       .  S
Cd786       O787   2.509       .  S
Cd786       O790   2.352       .  S
Cd786       O788   2.426       .  S
C789        O793   1.274       .  A
C789       C1249   1.466       .  S
O794        C797   1.278       .  A
O794       Cd799   2.511       .  S
C795        O804   1.264       .  A
C795        O800   1.279       .  A
O796        C802   1.270       .  A
O796       Cd799   2.391       .  S
C797        O805   1.264       .  A
C797        C860   1.465   1_556  S
C798        O803   1.271       .  A
C798        O801   1.271       .  A
C798       C1649   1.465       .  S
Cd799       O806   2.395       .  S
Cd799       O805   2.348       .  S
Cd799       O804   2.333       .  S
Cd799       O800   2.524       .  S
Cd799       O803   2.407       .  S
Cd799       O801   2.384       .  S
C802        O806   1.270       .  A
C802       C1073   1.462       .  S
O807        C810   1.277       .  A
O807       Cd812   2.508   1_545  S
C808        O817   1.263       .  A
C808        O813   1.277       .  A
O809        C815   1.269       .  A
O809       Cd812   2.402       .  S
C810        O818   1.263       .  A
C810        C914   1.462       .  S
C811        O816   1.269       .  A
C811        O814   1.269       .  A
C811       C1841   1.465       .  S
Cd812       O819   2.399       .  S
Cd812       O818   2.347   1_565  S
Cd812       O817   2.338       .  S
Cd812       O813   2.519       .  S
Cd812       O816   2.404       .  S
Cd812       O814   2.404       .  S
C815        O819   1.269       .  A
C815       C1049   1.463       .  S
O820        C823   1.282       .  A
O820       Cd825   2.515       .  S
C821        O830   1.267       .  A
C821        O826   1.282       .  A
C821        C873   1.473       .  S
O822        C828   1.272       .  A
O822       Cd825   2.348       .  S
C823        O831   1.267       .  A
C824        O829   1.271       .  A
C824        O827   1.274       .  A
C824       C1409   1.466       .  S
Cd825       O832   2.405       .  S
Cd825       O831   2.354       .  S
Cd825       O830   2.360   1_565  S
Cd825       O826   2.524   1_565  S
Cd825       O829   2.370       .  S
Cd825       O827   2.414       .  S
C828        O832   1.274       .  A
C828       C1057   1.461       .  S
O833        C836   1.279       .  A
O833       Cd838   2.524       .  S
C834        O843   1.266   1_455  A
C834        O839   1.279   1_455  A
C834        C925   1.472       .  S
O835        C841   1.273       .  A
O835       Cd838   2.413       .  S
C836        O844   1.264       .  A
C837        O842   1.271       .  A
C837        O840   1.271       .  A
C837       C2041   1.470       .  S
Cd838       O845   2.381       .  S
Cd838       O844   2.355       .  S
Cd838       O843   2.366       .  S
Cd838       O839   2.520       .  S
Cd838       O842   2.419       .  S
Cd838       O840   2.407       .  S
C841        O845   1.270       .  A
C841       C1041   1.465       .  S
O846        C849   1.277       .  A
O846       Cd851   2.521       .  S
C847        O856   1.261       .  A
C847        O852   1.277       .  A
O848        C854   1.268       .  A
O848       Cd851   2.407       .  S
C849        O857   1.263       .  A
C849        C899   1.465   1_655  S
C850        O855   1.268       .  A
C850        O853   1.269       .  A
C850       C1209   1.465       .  S
Cd851       O858   2.406       .  S
Cd851       O857   2.357       .  S
Cd851       O856   2.330       .  S
Cd851       O852   2.537       .  S
Cd851       O855   2.412       .  S
Cd851       O853   2.407       .  S
C854        O858   1.270       .  A
C854       C1033   1.465       .  S
O859        C862   1.269       .  A
O859       Cd864   2.464       .  S
C860        O869   1.264       .  A
C860        O865   1.269       .  A
O861        C867   1.271       .  A
O861       Cd864   2.504       .  S
C862        O870   1.267       .  A
C862       C1025   1.480       .  S
C863        O868   1.271       .  A
C863        O866   1.263       .  A
C863       C1585   1.484       .  S
Cd864       O871   2.441       .  S
Cd864       O870   2.455       .  S
Cd864       O869   2.387       .  S
Cd864       O865   2.524       .  S
Cd864       O868   2.523       .  S
Cd864       O866   2.409       .  S
C867        O871   1.266       .  A
C867       C1009   1.487       .  S
O872        C875   1.269       .  A
O872       Cd877   2.466       .  S
C873        O882   1.264       .  A
C873        O878   1.269       .  A
O874        C880   1.271       .  A
O874       Cd877   2.509       .  S
C875        O883   1.266       .  A
C875       C1017   1.482       .  S
C876        O881   1.269       .  A
C876        O879   1.266       .  A
C876        C993   1.487       .  S
Cd877       O884   2.422       .  S
Cd877       O883   2.468       .  S
Cd877       O882   2.410       .  S
Cd877       O878   2.544       .  S
Cd877       O881   2.516       .  S
Cd877       O879   2.442       .  S
C880        O884   1.264       .  A
C880       C1553   1.482       .  S
O885        C888   1.265       .  A
O885       Cd890   2.473       .  S
C886        O895   1.264       .  A
C886        O891   1.266       .  A
O887        C893   1.267       .  A
O887       Cd890   2.504       .  S
C888        O896   1.266       .  A
C888        C969   1.479       .  S
C889        O894   1.268       .  A
C889        O892   1.265       .  A
C889       C1001   1.487       .  S
Cd890       O897   2.469       .  S
Cd890       O896   2.458       .  S
Cd890       O895   2.412       .  S
Cd890       O891   2.517       .  S
Cd890       O894   2.514       .  S
Cd890       O892   2.450       .  S
C893        O897   1.264       .  A
C893       C1161   1.485       .  S
O898        C901   1.270       .  A
O898       Cd903   2.495       .  S
C899        O908   1.263       .  A
C899        O904   1.269       .  A
O900        C906   1.269       .  A
O900       Cd903   2.496       .  S
C901        O909   1.265       .  A
C901        C977   1.477       .  S
C902        O907   1.270       .  A
C902        O905   1.265       .  A
C902       C1137   1.487       .  S
Cd903       O910   2.474       .  S
Cd903       O909   2.407       .  S
Cd903       O908   2.388       .  S
Cd903       O904   2.524       .  S
Cd903       O907   2.518       .  S
Cd903       O905   2.444       .  S
C906        O910   1.266       .  A
C906        C953   1.489       .  S
O911        C914   1.267       .  A
O911       Cd916   2.523       .  S
C912        O921   1.266       .  A
C912        O917   1.267       .  A
C912        C937   1.484       .  S
O913        C919   1.268       .  A
O913       Cd916   2.514       .  S
C914        O922   1.263       .  A
C915        O920   1.267       .  A
C915        O918   1.266       .  A
C915        C985   1.486       .  S
Cd916       O923   2.459       .  S
Cd916       O922   2.392       .  S
Cd916       O921   2.445       .  S
Cd916       O917   2.496       .  S
Cd916       O920   2.490       .  S
Cd916       O918   2.474       .  S
C919        O923   1.264       .  A
C919       C1945   1.487       .  S
O924        C927   1.270       .  A
O924       Cd929   2.516       .  S
C925        O934   1.263       .  A
C925        O930   1.270       .  A
O926        C932   1.271       .  A
O926       Cd929   2.510       .  S
C927        O935   1.266       .  A
C927        C945   1.488       .  S
C928        O933   1.270       .  A
C928        O931   1.266       .  A
C928        C961   1.489       .  S
Cd929       O936   2.423       .  S
Cd929       O935   2.447       .  S
Cd929       O934   2.403       .  S
Cd929       O930   2.542       .  S
Cd929       O933   2.515       .  S
Cd929       O931   2.452       .  S
C932        O936   1.265       .  A
C932       C1977   1.483       .  S
C937        C938   1.407       .  A
C937        C942   1.405       .  A
C938        C939   1.404       .  A
C938        H947   1.083       .  S
C939        C940   1.406       .  A
C939        H948   1.083       .  S
C940        C946   1.412       .  A
C940        C941   1.414       .  A
C941        C943   1.399       .  A
C941        C942   1.402       .  A
C942        H949   1.084       .  S
C943        C944   1.394       .  A
C943        H950   1.084       .  S
C944        C945   1.407       .  A
C944        H951   1.083       .  S
C945        C946   1.411       .  A
C946        H952   1.084       .  S
C953        C954   1.406       .  A
C953        C958   1.409       .  A
C954        C955   1.402       .  A
C954        H963   1.083       .  S
C955        C956   1.404       .  A
C955        H964   1.084       .  S
C956        C962   1.412       .  A
C956        C957   1.414       .  A
C957        C959   1.401       .  A
C957        C958   1.408       .  A
C958        H965   1.084       .  S
C959        C960   1.398       .  A
C959        H966   1.083       .  S
C960        C961   1.407       .  A
C960        H967   1.083       .  S
C961        C962   1.410       .  A
C962        H968   1.084       .  S
C969        C970   1.406       .  A
C969        C974   1.404       .  A
C970        C971   1.400       .  A
C970        H979   1.083       .  S
C971        C972   1.403       .  A
C971        H980   1.084       .  S
C972        C978   1.408       .  A
C972        C973   1.415       .  A
C973        C975   1.399       .  A
C973        C974   1.401       .  A
C974        H981   1.084       .  S
C975        C976   1.392       .  A
C975        H982   1.084       .  S
C976        C977   1.405       .  A
C976        H983   1.083       .  S
C977        C978   1.407       .  A
C978        H984   1.084       .  S
C985        C986   1.407       .  A
C985        C990   1.406       .  A
C986        C987   1.402       .  A
C986        H995   1.083       .  S
C987        C988   1.404       .  A
C987        H996   1.084       .  S
C988        C994   1.412       .  A
C988        C989   1.414       .  A
C989        C991   1.400       .  A
C989        C990   1.405       .  A
C990        H997   1.084       .  S
C991        C992   1.395       .  A
C991        H998   1.084       .  S
C992        C993   1.407       .  A
C992        H999   1.083       .  S
C993        C994   1.410       .  A
C994       H1000   1.084       .  S
C1001      C1002   1.406       .  A
C1001      C1006   1.411       .  A
C1002      C1003   1.394       .  A
C1002      H1011   1.083       .  S
C1003      C1004   1.400       .  A
C1003      H1012   1.084       .  S
C1004      C1010   1.403       .  A
C1004      C1005   1.413       .  A
C1005      C1007   1.406       .  A
C1005      C1006   1.412       .  A
C1006      H1013   1.084       .  S
C1007      C1008   1.404       .  A
C1007      H1014   1.084       .  S
C1008      C1009   1.407       .  A
C1008      H1015   1.083       .  S
C1009      C1010   1.406       .  A
C1010      H1016   1.084       .  S
C1017      C1018   1.405       .  A
C1017      C1022   1.409       .  A
C1018      C1019   1.397       .  A
C1018      H1027   1.083       .  S
C1019      C1020   1.401       .  A
C1019      H1028   1.084       .  S
C1020      C1026   1.404       .  A
C1020      C1021   1.414       .  A
C1021      C1023   1.403       .  A
C1021      C1022   1.407       .  A
C1022      H1029   1.084       .  S
C1023      C1024   1.399       .  A
C1023      H1030   1.084       .  S
C1024      C1025   1.406       .  A
C1024      H1031   1.083       .  S
C1025      C1026   1.405       .  A
C1026      H1032   1.084       .  S
C1033      C1034   1.405       .  A
C1033      C1038   1.401       .  A
C1034      C1035   1.394       .  A
C1034      H1043   1.083       .  S
C1035      C1036   1.401       .  A
C1035      H1044   1.084       .  S
C1036      C1042   1.398       .  A
C1036      C1037   1.414       .  A
C1037      C1039   1.398       .  A
C1037      C1038   1.395       .  A
C1038      H1045   1.085       .  S
C1039      C1040   1.391       .  A
C1039      H1046   1.084       .  S
C1040      C1041   1.404       .  A
C1040      H1047   1.083       .  S
C1041      C1042   1.403       .  A
C1042      H1048   1.084       .  S
C1049      C1050   1.404       .  A
C1049      C1054   1.403       .  A
C1050      C1051   1.391       .  A
C1050      H1059   1.083       .  S
C1051      C1052   1.399       .  A
C1051      H1060   1.083       .  S
C1052      C1058   1.391       .  A
C1052      C1053   1.413       .  A
C1053      C1055   1.401       .  A
C1053      C1054   1.395       .  A
C1054      H1061   1.084       .  S
C1055      C1056   1.394       .  A
C1055      H1062   1.083       .  S
C1056      C1057   1.403       .  A
C1056      H1063   1.083       .  S
C1057      C1058   1.401       .  A
C1058      H1064   1.084       .  S
C1065      C1066   1.404       .  A
C1065      C1070   1.401       .  A
C1066      C1067   1.397       .  A
C1066      H1075   1.083       .  S
C1067      C1068   1.403       .  A
C1067      H1076   1.083       .  S
C1068      C1074   1.397       .  A
C1068      C1069   1.413       .  A
C1069      C1071   1.399       .  A
C1069      C1070   1.391       .  A
C1070      H1077   1.084       .  S
C1071      C1072   1.389       .  A
C1071      H1078   1.084       .  S
C1072      C1073   1.403       .  A
C1072      H1079   1.083       .  S
C1073      C1074   1.404       .  A
C1074      H1080   1.084       .  S
C1081      C1082   1.406       .  A
C1081      C1086   1.405       .  A
C1082      C1083   1.395       .  A
C1082      H1091   1.083       .  S
C1083      C1084   1.401       .  A
C1083      H1092   1.084       .  S
C1084      C1090   1.401       .  A
C1084      C1085   1.414       .  A
C1085      C1087   1.403       .  A
C1085      C1086   1.404       .  A
C1086      H1093   1.084       .  S
C1087      C1088   1.398       .  A
C1087      H1094   1.084       .  S
C1088      C1089   1.404       .  A
C1088      H1095   1.083       .  S
C1089      C1090   1.405       .  A
C1090      H1096   1.084       .  S
C1097      C1098   1.406       .  A
C1097      C1102   1.407       .  A
C1098      C1099   1.393       .  A
C1098      H1107   1.083       .  S
C1099      C1100   1.399       .  A
C1099      H1108   1.084       .  S
C1100      C1106   1.402       .  A
C1100      C1101   1.414       .  A
C1101      C1103   1.403       .  A
C1101      C1102   1.408       .  A
C1102      H1109   1.084       .  S
C1103      C1104   1.400       .  A
C1103      H1110   1.084       .  S
C1104      C1105   1.407       .  A
C1104      H1111   1.083       .  S
C1105      C1106   1.405       .  A
C1106      H1112   1.084       .  S
C1113      C1114   1.407       .  A
C1113      C1118   1.408       .  A
C1114      C1115   1.397       .  A
C1114      H1123   1.083       .  S
C1115      C1116   1.401       .  A
C1115      H1124   1.084       .  S
C1116      C1122   1.405       .  A
C1116      C1117   1.414       .  A
C1117      C1119   1.403       .  A
C1117      C1118   1.408       .  A
C1118      H1125   1.084       .  S
C1119      C1120   1.400       .  A
C1119      H1126   1.083       .  S
C1120      C1121   1.406       .  A
C1120      H1127   1.083       .  S
C1121      C1122   1.407       .  A
C1122      H1128   1.084       .  S
C1129      C1130   1.407       .  A
C1129      C1134   1.406       .  A
C1130      C1131   1.405       .  A
C1130      H1139   1.083       .  S
C1131      C1132   1.406       .  A
C1131      H1140   1.084       .  S
C1132      C1138   1.413       .  A
C1132      C1133   1.413       .  A
C1133      C1135   1.400       .  A
C1133      C1134   1.404       .  A
C1134      H1141   1.084       .  S
C1135      C1136   1.395       .  A
C1135      H1142   1.084       .  S
C1136      C1137   1.407       .  A
C1136      H1143   1.083       .  S
C1137      C1138   1.411       .  A
C1138      H1144   1.084       .  S
C1145      C1146   1.406       .  A
C1145      C1150   1.409       .  A
C1146      C1147   1.393       .  A
C1146      H1155   1.083       .  S
C1147      C1148   1.399       .  A
C1147      H1156   1.084       .  S
C1148      C1154   1.401       .  A
C1148      C1149   1.414       .  A
C1149      C1151   1.405       .  A
C1149      C1150   1.410       .  A
C1150      H1157   1.084       .  S
C1151      C1152   1.402       .  A
C1151      H1158   1.083       .  S
C1152      C1153   1.406       .  A
C1152      H1159   1.083       .  S
C1153      C1154   1.404       .  A
C1154      H1160   1.084       .  S
C1161      C1162   1.407       .  A
C1161      C1166   1.406       .  A
C1162      C1163   1.403       .  A
C1162      H1171   1.083       .  S
C1163      C1164   1.404       .  A
C1163      H1172   1.084       .  S
C1164      C1170   1.412       .  A
C1164      C1165   1.415       .  A
C1165      C1167   1.399       .  A
C1165      C1166   1.404       .  A
C1166      H1173   1.084       .  S
C1167      C1168   1.394       .  A
C1167      H1174   1.084       .  S
C1168      C1169   1.408       .  A
C1168      H1175   1.083       .  S
C1169      C1170   1.409       .  A
C1170      H1176   1.084       .  S
C1177      C1178   1.405       .  A
C1177      C1182   1.406       .  A
C1178      C1179   1.394       .  A
C1178      H1187   1.083       .  S
C1179      C1180   1.400       .  A
C1179      H1188   1.084       .  S
C1180      C1186   1.399       .  A
C1180      C1181   1.414       .  A
C1181      C1183   1.402       .  A
C1181      C1182   1.402       .  A
C1182      H1189   1.084       .  S
C1183      C1184   1.397       .  A
C1183      H1190   1.083       .  S
C1184      C1185   1.404       .  A
C1184      H1191   1.083       .  S
C1185      C1186   1.403       .  A
C1186      H1192   1.084       .  S
C1193      C1194   1.407       .  A
C1193      C1198   1.408       .  A
C1194      C1195   1.401       .  A
C1194      H1203   1.083       .  S
C1195      C1196   1.404       .  A
C1195      H1204   1.083       .  S
C1196      C1202   1.410       .  A
C1196      C1197   1.414       .  A
C1197      C1199   1.403       .  A
C1197      C1198   1.410       .  A
C1198      H1205   1.084       .  S
C1199      C1200   1.402       .  A
C1199      H1206   1.084       .  S
C1200      C1201   1.407       .  A
C1200      H1207   1.083       .  S
C1201      C1202   1.410       .  A
C1202      H1208   1.084       .  S
C1209      C1210   1.404       .  A
C1209      C1214   1.402       .  A
C1210      C1211   1.393       .  A
C1210      H1219   1.083       .  S
C1211      C1212   1.401       .  A
C1211      H1220   1.084       .  S
C1212      C1218   1.396       .  A
C1212      C1213   1.414       .  A
C1213      C1215   1.400       .  A
C1213      C1214   1.396       .  A
C1214      H1221   1.084       .  S
C1215      C1216   1.393       .  A
C1215      H1222   1.084       .  S
C1216      C1217   1.403       .  A
C1216      H1223   1.083       .  S
C1217      C1218   1.403       .  A
C1218      H1224   1.084       .  S
C1225      C1226   1.404       .  A
C1225      C1230   1.402       .  A
C1226      C1227   1.395       .  A
C1226      H1235   1.083       .  S
C1227      C1228   1.402       .  A
C1227      H1236   1.084       .  S
C1228      C1234   1.396       .  A
C1228      C1229   1.413       .  A
C1229      C1231   1.400       .  A
C1229      C1230   1.394       .  A
C1230      H1237   1.084       .  S
C1231      C1232   1.391       .  A
C1231      H1238   1.084       .  S
C1232      C1233   1.403       .  A
C1232      H1239   1.083       .  S
C1233      C1234   1.404       .  A
C1234      H1240   1.084       .  S
C1241      C1242   1.404       .  A
C1241      C1246   1.404       .  A
C1242      C1243   1.390       .  A
C1242      H1251   1.083       .  S
C1243      C1244   1.398       .  A
C1243      H1252   1.084       .  S
C1244      C1250   1.393       .  A
C1244      C1245   1.414       .  A
C1245      C1247   1.402       .  A
C1245      C1246   1.399       .  A
C1246      H1253   1.084       .  S
C1247      C1248   1.396       .  A
C1247      H1254   1.084       .  S
C1248      C1249   1.404       .  A
C1248      H1255   1.083       .  S
C1249      C1250   1.401       .  A
C1250      H1256   1.085       .  S
C1257      C1258   1.404       .  A
C1257      C1262   1.401       .  A
C1258      C1259   1.396       .  A
C1258      H1267   1.083       .  S
C1259      C1260   1.403       .  A
C1259      H1268   1.084       .  S
C1260      C1266   1.397       .  A
C1260      C1261   1.413       .  A
C1261      C1263   1.398       .  A
C1261      C1262   1.390       .  A
C1262      H1269   1.084       .  S
C1263      C1264   1.389       .  A
C1263      H1270   1.084       .  S
C1264      C1265   1.403       .  A
C1264      H1271   1.083       .  S
C1265      C1266   1.404       .  A
C1266      H1272   1.084       .  S
C1273      C1274   1.407       .  A
C1273      C1278   1.410       .  A
C1274      C1275   1.404       .  A
C1274      H1283   1.083       .  S
C1275      C1276   1.405       .  A
C1275      H1284   1.083       .  S
C1276      C1282   1.415       .  A
C1276      C1277   1.414       .  A
C1277      C1279   1.401       .  A
C1277      C1278   1.409       .  A
C1278      H1285   1.084       .  S
C1279      C1280   1.398       .  A
C1279      H1286   1.084       .  S
C1280      C1281   1.408       .  A
C1280      H1287   1.083       .  S
C1281      C1282   1.411       .  A
C1282      H1288   1.084       .  S
C1289      C1290   1.407       .  A
C1289      C1294   1.409       .  A
C1290      C1291   1.401       .  A
C1290      H1299   1.083       .  S
C1291      C1292   1.403       .  A
C1291      H1300   1.084       .  S
C1292      C1298   1.411       .  A
C1292      C1293   1.414       .  A
C1293      C1295   1.402       .  A
C1293      C1294   1.410       .  A
C1294      H1301   1.084       .  S
C1295      C1296   1.399       .  A
C1295      H1302   1.084       .  S
C1296      C1297   1.408       .  A
C1296      H1303   1.083       .  S
C1297      C1298   1.408       .  A
C1298      H1304   1.084       .  S
C1305      C1306   1.405       .  A
C1305      C1310   1.402       .  A
C1306      C1307   1.400       .  A
C1306      H1315   1.083       .  S
C1307      C1308   1.404       .  A
C1307      H1316   1.083       .  S
C1308      C1314   1.404       .  A
C1308      C1309   1.413       .  A
C1309      C1311   1.398       .  A
C1309      C1310   1.396       .  A
C1310      H1317   1.084       .  S
C1311      C1312   1.391       .  A
C1311      H1318   1.084       .  S
C1312      C1313   1.405       .  A
C1312      H1319   1.083       .  S
C1313      C1314   1.407       .  A
C1314      H1320   1.084       .  S
C1321      C1322   1.406       .  A
C1321      C1326   1.405       .  A
C1322      C1323   1.402       .  A
C1322      H1331   1.083       .  S
C1323      C1324   1.405       .  A
C1323      H1332   1.084       .  S
C1324      C1330   1.410       .  A
C1324      C1325   1.414       .  A
C1325      C1327   1.399       .  A
C1325      C1326   1.402       .  A
C1326      H1333   1.084       .  S
C1327      C1328   1.394       .  A
C1327      H1334   1.084       .  S
C1328      C1329   1.407       .  A
C1328      H1335   1.083       .  S
C1329      C1330   1.408       .  A
C1330      H1336   1.084       .  S
C1337      C1338   1.405       .  A
C1337      C1342   1.410       .  A
C1338      C1339   1.392       .  A
C1338      H1347   1.083       .  S
C1339      C1340   1.398       .  A
C1339      H1348   1.084       .  S
C1340      C1346   1.399       .  A
C1340      C1341   1.414       .  A
C1341      C1343   1.406       .  A
C1341      C1342   1.410       .  A
C1342      H1349   1.084       .  S
C1343      C1344   1.403       .  A
C1343      H1350   1.083       .  S
C1344      C1345   1.406       .  A
C1344      H1351   1.083       .  S
C1345      C1346   1.403       .  A
C1346      H1352   1.084       .  S
C1353      C1354   1.405       .  A
C1353      C1358   1.408       .  A
C1354      C1355   1.399       .  A
C1354      H1363   1.083       .  S
C1355      C1356   1.403       .  A
C1355      H1364   1.084       .  S
C1356      C1362   1.407       .  A
C1356      C1357   1.414       .  A
C1357      C1359   1.402       .  A
C1357      C1358   1.405       .  A
C1358      H1365   1.084       .  S
C1359      C1360   1.398       .  A
C1359      H1366   1.084       .  S
C1360      C1361   1.407       .  A
C1360      H1367   1.083       .  S
C1361      C1362   1.407       .  A
C1362      H1368   1.084       .  S
C1369      C1370   1.407       .  A
C1369      C1374   1.409       .  A
C1370      C1371   1.400       .  A
C1370      H1379   1.083       .  S
C1371      C1372   1.403       .  A
C1371      H1380   1.084       .  S
C1372      C1378   1.408       .  A
C1372      C1373   1.413       .  A
C1373      C1375   1.404       .  A
C1373      C1374   1.409       .  A
C1374      H1381   1.084       .  S
C1375      C1376   1.401       .  A
C1375      H1382   1.084       .  S
C1376      C1377   1.406       .  A
C1376      H1383   1.083       .  S
C1377      C1378   1.409       .  A
C1378      H1384   1.084       .  S
C1385      C1386   1.405       .  A
C1385      C1390   1.406       .  A
C1386      C1387   1.398       .  A
C1386      H1395   1.083       .  S
C1387      C1388   1.403       .  A
C1387      H1396   1.084       .  S
C1388      C1394   1.404       .  A
C1388      C1389   1.413       .  A
C1389      C1391   1.402       .  A
C1389      C1390   1.402       .  A
C1390      H1397   1.084       .  S
C1391      C1392   1.397       .  A
C1391      H1398   1.084       .  S
C1392      C1393   1.406       .  A
C1392      H1399   1.083       .  S
C1393      C1394   1.407       .  A
C1394      H1400   1.084       .  S
C1401      C1402   1.404       .  A
C1401      C1406   1.402       .  A
C1402      C1403   1.392       .  A
C1402      H1411   1.086       .  S
C1403      C1404   1.400       .  A
C1403      H1412   1.086       .  S
C1404      C1410   1.394       .  A
C1404      C1405   1.414       .  A
C1405      C1407   1.400       .  A
C1405      C1406   1.396       .  A
C1406      H1413   1.090       .  S
C1407      C1408   1.393       .  A
C1407      H1414   1.096       .  S
C1408      C1409   1.404       .  A
C1408      H1415   1.082       .  S
C1409      C1410   1.402       .  A
C1410      H1416   1.098       .  S
C1417      C1418   1.403       .  A
C1417      C1422   1.403       .  A
C1418      C1419   1.393       .  A
C1418      H1427   1.083       .  S
C1419      C1420   1.400       .  A
C1419      H1428   1.084       .  S
C1420      C1426   1.395       .  A
C1420      C1421   1.413       .  A
C1421      C1423   1.400       .  A
C1421      C1422   1.395       .  A
C1422      H1429   1.084       .  S
C1423      C1424   1.392       .  A
C1423      H1430   1.084       .  S
C1424      C1425   1.404       .  A
C1424      H1431   1.083       .  S
C1425      C1426   1.402       .  A
C1426      H1432   1.084       .  S
C1433      C1434   1.405       .  A
C1433      C1438   1.400       .  A
C1434      C1435   1.399       .  A
C1434      H1443   1.083       .  S
C1435      C1436   1.403       .  A
C1435      H1444   1.084       .  S
C1436      C1442   1.401       .  A
C1436      C1437   1.414       .  A
C1437      C1439   1.398       .  A
C1437      C1438   1.393       .  A
C1438      H1445   1.085       .  S
C1439      C1440   1.389       .  A
C1439      H1446   1.084       .  S
C1440      C1441   1.404       .  A
C1440      H1447   1.083       .  S
C1441      C1442   1.405       .  A
C1442      H1448   1.084       .  S
C1449      C1450   1.404       .  A
C1449      C1454   1.403       .  A
C1450      C1451   1.394       .  A
C1450      H1459   1.083       .  S
C1451      C1452   1.401       .  A
C1451      H1460   1.084       .  S
C1452      C1458   1.397       .  A
C1452      C1453   1.414       .  A
C1453      C1455   1.400       .  A
C1453      C1454   1.396       .  A
C1454      H1461   1.084       .  S
C1455      C1456   1.393       .  A
C1455      H1462   1.084       .  S
C1456      C1457   1.404       .  A
C1456      H1463   1.083       .  S
C1457      C1458   1.403       .  A
C1458      H1464   1.084       .  S
C1465      C1466   1.406       .  A
C1465      C1470   1.405       .  A
C1466      C1467   1.402       .  A
C1466      H1475   1.083       .  S
C1467      C1468   1.404       .  A
C1467      H1476   1.084       .  S
C1468      C1474   1.408       .  A
C1468      C1469   1.414       .  A
C1469      C1471   1.400       .  A
C1469      C1470   1.401       .  A
C1470      H1477   1.084       .  S
C1471      C1472   1.394       .  A
C1471      H1478   1.084       .  S
C1472      C1473   1.405       .  A
C1472      H1479   1.083       .  S
C1473      C1474   1.408       .  A
C1474      H1480   1.084       .  S
C1481      C1482   1.407       .  A
C1481      C1486   1.406       .  A
C1482      C1483   1.403       .  A
C1482      H1491   1.083       .  S
C1483      C1484   1.405       .  A
C1483      H1492   1.084       .  S
C1484      C1490   1.412       .  A
C1484      C1485   1.414       .  A
C1485      C1487   1.399       .  A
C1485      C1486   1.404       .  A
C1486      H1493   1.084       .  S
C1487      C1488   1.394       .  A
C1487      H1494   1.084       .  S
C1488      C1489   1.407       .  A
C1488      H1495   1.083       .  S
C1489      C1490   1.410       .  A
C1490      H1496   1.084       .  S
C1497      C1498   1.407       .  A
C1497      C1502   1.411       .  A
C1498      C1499   1.395       .  A
C1498      H1507   1.083       .  S
C1499      C1500   1.399       .  A
C1499      H1508   1.084       .  S
C1500      C1506   1.405       .  A
C1500      C1501   1.414       .  A
C1501      C1503   1.405       .  A
C1501      C1502   1.413       .  A
C1502      H1509   1.084       .  S
C1503      C1504   1.403       .  A
C1503      H1510   1.084       .  S
C1504      C1505   1.408       .  A
C1504      H1511   1.083       .  S
C1505      C1506   1.406       .  A
C1506      H1512   1.084       .  S
C1513      C1514   1.408       .  A
C1513      C1518   1.409       .  A
C1514      C1515   1.398       .  A
C1514      H1523   1.083       .  S
C1515      C1516   1.401       .  A
C1515      H1524   1.084       .  S
C1516      C1522   1.408       .  A
C1516      C1517   1.414       .  A
C1517      C1519   1.404       .  A
C1517      C1518   1.412       .  A
C1518      H1525   1.084       .  S
C1519      C1520   1.402       .  A
C1519      H1526   1.083       .  S
C1520      C1521   1.406       .  A
C1520      H1527   1.083       .  S
C1521      C1522   1.408       .  A
C1522      H1528   1.084       .  S
C1529      C1530   1.406       .  A
C1529      C1534   1.404       .  A
C1530      C1531   1.400       .  A
C1530      H1539   1.083       .  S
C1531      C1532   1.404       .  A
C1531      H1540   1.083       .  S
C1532      C1538   1.408       .  A
C1532      C1533   1.415       .  A
C1533      C1535   1.399       .  A
C1533      C1534   1.401       .  A
C1534      H1541   1.084       .  S
C1535      C1536   1.393       .  A
C1535      H1542   1.084       .  S
C1536      C1537   1.405       .  A
C1536      H1543   1.083       .  S
C1537      C1538   1.407       .  A
C1538      H1544   1.084       .  S
C1545      C1546   1.406       .  A
C1545      C1550   1.406       .  A
C1546      C1547   1.401       .  A
C1546      H1555   1.083       .  S
C1547      C1548   1.403       .  A
C1547      H1556   1.084       .  S
C1548      C1554   1.409       .  A
C1548      C1549   1.414       .  A
C1549      C1551   1.400       .  A
C1549      C1550   1.403       .  A
C1550      H1557   1.084       .  S
C1551      C1552   1.394       .  A
C1551      H1558   1.083       .  S
C1552      C1553   1.407       .  A
C1552      H1559   1.083       .  S
C1553      C1554   1.407       .  A
C1554      H1560   1.084       .  S
C1561      C1562   1.407       .  A
C1561      C1566   1.406       .  A
C1562      C1563   1.402       .  A
C1562      H1571   1.083       .  S
C1563      C1564   1.404       .  A
C1563      H1572   1.084       .  S
C1564      C1570   1.411       .  A
C1564      C1565   1.414       .  A
C1565      C1567   1.400       .  A
C1565      C1566   1.404       .  A
C1566      H1573   1.084       .  S
C1567      C1568   1.395       .  A
C1567      H1574   1.084       .  S
C1568      C1569   1.406       .  A
C1568      H1575   1.083       .  S
C1569      C1570   1.410       .  A
C1570      H1576   1.084       .  S
C1577      C1578   1.406       .  A
C1577      C1582   1.405       .  A
C1578      C1579   1.404       .  A
C1578      H1587   1.083       .  S
C1579      C1580   1.405       .  A
C1579      H1588   1.083       .  S
C1580      C1586   1.412       .  A
C1580      C1581   1.414       .  A
C1581      C1583   1.398       .  A
C1581      C1582   1.402       .  A
C1582      H1589   1.084       .  S
C1583      C1584   1.392       .  A
C1583      H1590   1.084       .  S
C1584      C1585   1.407       .  A
C1584      H1591   1.083       .  S
C1585      C1586   1.410       .  A
C1586      H1592   1.084       .  S
C1593      C1594   1.407       .  A
C1593      C1598   1.407       .  A
C1594      C1595   1.396       .  A
C1594      H1603   1.083       .  S
C1595      C1596   1.400       .  A
C1595      H1604   1.084       .  S
C1596      C1602   1.403       .  A
C1596      C1597   1.414       .  A
C1597      C1599   1.402       .  A
C1597      C1598   1.407       .  A
C1598      H1605   1.084       .  S
C1599      C1600   1.399       .  A
C1599      H1606   1.084       .  S
C1600      C1601   1.406       .  A
C1600      H1607   1.083       .  S
C1601      C1602   1.405       .  A
C1602      H1608   1.084       .  S
C1609      C1610   1.407       .  A
C1609      C1614   1.410       .  A
C1610      C1611   1.397       .  A
C1610      H1619   1.083       .  S
C1611      C1612   1.401       .  A
C1611      H1620   1.084       .  S
C1612      C1618   1.407       .  A
C1612      C1613   1.414       .  A
C1613      C1615   1.404       .  A
C1613      C1614   1.412       .  A
C1614      H1621   1.084       .  S
C1615      C1616   1.402       .  A
C1615      H1622   1.083       .  S
C1616      C1617   1.407       .  A
C1616      H1623   1.083       .  S
C1617      C1618   1.407       .  A
C1618      H1624   1.084       .  S
C1625      C1626   1.404       .  A
C1625      C1630   1.402       .  A
C1626      C1627   1.395       .  A
C1626      H1635   1.083       .  S
C1627      C1628   1.402       .  A
C1627      H1636   1.083       .  S
C1628      C1634   1.396       .  A
C1628      C1629   1.413       .  A
C1629      C1631   1.400       .  A
C1629      C1630   1.394       .  A
C1630      H1637   1.084       .  S
C1631      C1632   1.392       .  A
C1631      H1638   1.084       .  S
C1632      C1633   1.404       .  A
C1632      H1639   1.083       .  S
C1633      C1634   1.403       .  A
C1634      H1640   1.084       .  S
C1641      C1642   1.404       .  A
C1641      C1646   1.404       .  A
C1642      C1643   1.394       .  A
C1642      H1651   1.083       .  S
C1643      C1644   1.401       .  A
C1643      H1652   1.084       .  S
C1644      C1650   1.396       .  A
C1644      C1645   1.413       .  A
C1645      C1647   1.401       .  A
C1645      C1646   1.396       .  A
C1646      H1653   1.084       .  S
C1647      C1648   1.394       .  A
C1647      H1654   1.084       .  S
C1648      C1649   1.404       .  A
C1648      H1655   1.083       .  S
C1649      C1650   1.403       .  A
C1650      H1656   1.084       .  S
C1657      C1658   1.405       .  A
C1657      C1662   1.403       .  A
C1658      C1659   1.394       .  A
C1658      H1667   1.083       .  S
C1659      C1660   1.401       .  A
C1659      H1668   1.084       .  S
C1660      C1666   1.397       .  A
C1660      C1661   1.413       .  A
C1661      C1663   1.401       .  A
C1661      C1662   1.397       .  A
C1662      H1669   1.084       .  S
C1663      C1664   1.394       .  A
C1663      H1670   1.084       .  S
C1664      C1665   1.404       .  A
C1664      H1671   1.083       .  S
C1665      C1666   1.404       .  A
C1666      H1672   1.084       .  S
C1673      C1674   1.405       .  A
C1673      C1678   1.404       .  A
C1674      C1675   1.398       .  A
C1674      H1683   1.083       .  S
C1675      C1676   1.402       .  A
C1675      H1684   1.084       .  S
C1676      C1682   1.405       .  A
C1676      C1677   1.414       .  A
C1677      C1679   1.400       .  A
C1677      C1678   1.401       .  A
C1678      H1685   1.084       .  S
C1679      C1680   1.394       .  A
C1679      H1686   1.084       .  S
C1680      C1681   1.406       .  A
C1680      H1687   1.083       .  S
C1681      C1682   1.406       .  A
C1682      H1688   1.084       .  S
C1689      C1690   1.407       .  A
C1689      C1694   1.405       .  A
C1690      C1691   1.401       .  A
C1690      H1699   1.083       .  S
C1691      C1692   1.403       .  A
C1691      H1700   1.083       .  S
C1692      C1698   1.410       .  A
C1692      C1693   1.415       .  A
C1693      C1695   1.400       .  A
C1693      C1694   1.405       .  A
C1694      H1701   1.084       .  S
C1695      C1696   1.395       .  A
C1695      H1702   1.084       .  S
C1696      C1697   1.407       .  A
C1696      H1703   1.083       .  S
C1697      C1698   1.408       .  A
C1698      H1704   1.084       .  S
C1705      C1706   1.405       .  A
C1705      C1710   1.406       .  A
C1706      C1707   1.393       .  A
C1706      H1715   1.083       .  S
C1707      C1708   1.400       .  A
C1707      H1716   1.084       .  S
C1708      C1714   1.400       .  A
C1708      C1709   1.414       .  A
C1709      C1711   1.403       .  A
C1709      C1710   1.404       .  A
C1710      H1717   1.084       .  S
C1711      C1712   1.399       .  A
C1711      H1718   1.084       .  S
C1712      C1713   1.405       .  A
C1712      H1719   1.083       .  S
C1713      C1714   1.404       .  A
C1714      H1720   1.084       .  S
C1721      C1722   1.407       .  A
C1721      C1726   1.403       .  A
C1722      C1723   1.404       .  A
C1722      H1731   1.083       .  S
C1723      C1724   1.406       .  A
C1723      H1732   1.084       .  S
C1724      C1730   1.412       .  A
C1724      C1725   1.414       .  A
C1725      C1727   1.398       .  A
C1725      C1726   1.399       .  A
C1726      H1733   1.084       .  S
C1727      C1728   1.391       .  A
C1727      H1734   1.084       .  S
C1728      C1729   1.406       .  A
C1728      H1735   1.083       .  S
C1729      C1730   1.410       .  A
C1730      H1736   1.084       .  S
C1737      C1738   1.407       .  A
C1737      C1742   1.404       .  A
C1738      C1739   1.398       .  A
C1738      H1747   1.083       .  S
C1739      C1740   1.402       .  A
C1739      H1748   1.084       .  S
C1740      C1746   1.403       .  A
C1740      C1741   1.413       .  A
C1741      C1743   1.401       .  A
C1741      C1742   1.402       .  A
C1742      H1749   1.084       .  S
C1743      C1744   1.397       .  A
C1743      H1750   1.084       .  S
C1744      C1745   1.405       .  A
C1744      H1751   1.083       .  S
C1745      C1746   1.407       .  A
C1746      H1752   1.084       .  S
C1753      C1754   1.406       .  A
C1753      C1758   1.406       .  A
C1754      C1755   1.397       .  A
C1754      H1763   1.083       .  S
C1755      C1756   1.402       .  A
C1755      H1764   1.084       .  S
C1756      C1762   1.402       .  A
C1756      C1757   1.413       .  A
C1757      C1759   1.402       .  A
C1757      C1758   1.404       .  A
C1758      H1765   1.084       .  S
C1759      C1760   1.398       .  A
C1759      H1766   1.084       .  S
C1760      C1761   1.405       .  A
C1760      H1767   1.083       .  S
C1761      C1762   1.406       .  A
C1762      H1768   1.084       .  S
C1769      C1770   1.407       .  A
C1769      C1774   1.410       .  A
C1770      C1771   1.394       .  A
C1770      H1779   1.083       .  S
C1771      C1772   1.399       .  A
C1771      H1780   1.084       .  S
C1772      C1778   1.402       .  A
C1772      C1773   1.414       .  A
C1773      C1775   1.406       .  A
C1773      C1774   1.411       .  A
C1774      H1781   1.084       .  S
C1775      C1776   1.404       .  A
C1775      H1782   1.083       .  S
C1776      C1777   1.406       .  A
C1776      H1783   1.083       .  S
C1777      C1778   1.406       .  A
C1778      H1784   1.084       .  S
C1785      C1786   1.405       .  A
C1785      C1790   1.404       .  A
C1786      C1787   1.394       .  A
C1786      H1795   1.083       .  S
C1787      C1788   1.401       .  A
C1787      H1796   1.084       .  S
C1788      C1794   1.401       .  A
C1788      C1789   1.414       .  A
C1789      C1791   1.402       .  A
C1789      C1790   1.402       .  A
C1790      H1797   1.084       .  S
C1791      C1792   1.397       .  A
C1791      H1798   1.084       .  S
C1792      C1793   1.405       .  A
C1792      H1799   1.083       .  S
C1793      C1794   1.406       .  A
C1794      H1800   1.084       .  S
C1801      C1802   1.405       .  A
C1801      C1806   1.402       .  A
C1802      C1803   1.394       .  A
C1802      H1811   1.083       .  S
C1803      C1804   1.400       .  A
C1803      H1812   1.084       .  S
C1804      C1810   1.398       .  A
C1804      C1805   1.414       .  A
C1805      C1807   1.399       .  A
C1805      C1806   1.397       .  A
C1806      H1813   1.084       .  S
C1807      C1808   1.392       .  A
C1807      H1814   1.084       .  S
C1808      C1809   1.404       .  A
C1808      H1815   1.083       .  S
C1809      C1810   1.403       .  A
C1810      H1816   1.084       .  S
C1817      C1818   1.404       .  A
C1817      C1822   1.400       .  A
C1818      C1819   1.398       .  A
C1818      H1827   1.083       .  S
C1819      C1820   1.403       .  A
C1819      H1828   1.084       .  S
C1820      C1826   1.398       .  A
C1820      C1821   1.413       .  A
C1821      C1823   1.398       .  A
C1821      C1822   1.390       .  A
C1822      H1829   1.084       .  S
C1823      C1824   1.389       .  A
C1823      H1830   1.084       .  S
C1824      C1825   1.403       .  A
C1824      H1831   1.083       .  S
C1825      C1826   1.405       .  A
C1826      H1832   1.084       .  S
C1833      C1834   1.404       .  A
C1833      C1838   1.402       .  A
C1834      C1835   1.395       .  A
C1834      H1843   1.083       .  S
C1835      C1836   1.402       .  A
C1835      H1844   1.083       .  S
C1836      C1842   1.397       .  A
C1836      C1837   1.413       .  A
C1837      C1839   1.399       .  A
C1837      C1838   1.393       .  A
C1838      H1845   1.084       .  S
C1839      C1840   1.391       .  A
C1839      H1846   1.083       .  S
C1840      C1841   1.404       .  A
C1840      H1847   1.083       .  S
C1841      C1842   1.403       .  A
C1842      H1848   1.084       .  S
C1849      C1850   1.404       .  A
C1849      C1854   1.401       .  A
C1850      C1851   1.394       .  A
C1850      H1859   1.083       .  S
C1851      C1852   1.401       .  A
C1851      H1860   1.084       .  S
C1852      C1858   1.395       .  A
C1852      C1853   1.413       .  A
C1853      C1855   1.400       .  A
C1853      C1854   1.393       .  A
C1854      H1861   1.084       .  S
C1855      C1856   1.392       .  A
C1855      H1862   1.084       .  S
C1856      C1857   1.403       .  A
C1856      H1863   1.083       .  S
C1857      C1858   1.403       .  A
C1858      H1864   1.084       .  S
C1865      C1866   1.406       .  A
C1865      C1870   1.408       .  A
C1866      C1867   1.402       .  A
C1866      H1875   1.083       .  S
C1867      C1868   1.404       .  A
C1867      H1876   1.084       .  S
C1868      C1874   1.410       .  A
C1868      C1869   1.414       .  A
C1869      C1871   1.401       .  A
C1869      C1870   1.404       .  A
C1870      H1877   1.084       .  S
C1871      C1872   1.396       .  A
C1871      H1878   1.084       .  S
C1872      C1873   1.407       .  A
C1872      H1879   1.083       .  S
C1873      C1874   1.408       .  A
C1874      H1880   1.084       .  S
C1881      C1882   1.407       .  A
C1881      C1886   1.405       .  A
C1882      C1883   1.406       .  A
C1882      H1891   1.083       .  S
C1883      C1884   1.407       .  A
C1883      H1892   1.083       .  S
C1884      C1890   1.415       .  A
C1884      C1885   1.414       .  A
C1885      C1887   1.398       .  A
C1885      C1886   1.401       .  A
C1886      H1893   1.084       .  S
C1887      C1888   1.392       .  A
C1887      H1894   1.084       .  S
C1888      C1889   1.406       .  A
C1888      H1895   1.083       .  S
C1889      C1890   1.412       .  A
C1890      H1896   1.084       .  S
C1897      C1898   1.405       .  A
C1897      C1902   1.408       .  A
C1898      C1899   1.397       .  A
C1898      H1907   1.083       .  S
C1899      C1900   1.402       .  A
C1899      H1908   1.084       .  S
C1900      C1906   1.404       .  A
C1900      C1901   1.413       .  A
C1901      C1903   1.403       .  A
C1901      C1902   1.405       .  A
C1902      H1909   1.084       .  S
C1903      C1904   1.399       .  A
C1903      H1910   1.084       .  S
C1904      C1905   1.406       .  A
C1904      H1911   1.083       .  S
C1905      C1906   1.406       .  A
C1906      H1912   1.084       .  S
C1913      C1914   1.407       .  A
C1913      C1918   1.405       .  A
C1914      C1915   1.405       .  A
C1914      H1923   1.083       .  S
C1915      C1916   1.406       .  A
C1915      H1924   1.084       .  S
C1916      C1922   1.413       .  A
C1916      C1917   1.414       .  A
C1917      C1919   1.398       .  A
C1917      C1918   1.401       .  A
C1918      H1925   1.084       .  S
C1919      C1920   1.393       .  A
C1919      H1926   1.084       .  S
C1920      C1921   1.406       .  A
C1920      H1927   1.083       .  S
C1921      C1922   1.411       .  A
C1922      H1928   1.084       .  S
C1929      C1930   1.406       .  A
C1929      C1934   1.405       .  A
C1930      C1931   1.400       .  A
C1930      H1939   1.083       .  S
C1931      C1932   1.403       .  A
C1931      H1940   1.083       .  S
C1932      C1938   1.407       .  A
C1932      C1933   1.414       .  A
C1933      C1935   1.399       .  A
C1933      C1934   1.402       .  A
C1934      H1941   1.084       .  S
C1935      C1936   1.394       .  A
C1935      H1942   1.084       .  S
C1936      C1937   1.407       .  A
C1936      H1943   1.083       .  S
C1937      C1938   1.407       .  A
C1938      H1944   1.084       .  S
C1945      C1946   1.407       .  A
C1945      C1950   1.406       .  A
C1946      C1947   1.404       .  A
C1946      H1955   1.083       .  S
C1947      C1948   1.405       .  A
C1947      H1956   1.083       .  S
C1948      C1954   1.412       .  A
C1948      C1949   1.414       .  A
C1949      C1951   1.399       .  A
C1949      C1950   1.404       .  A
C1950      H1957   1.084       .  S
C1951      C1952   1.395       .  A
C1951      H1958   1.084       .  S
C1952      C1953   1.408       .  A
C1952      H1959   1.083       .  S
C1953      C1954   1.410       .  A
C1954      H1960   1.084       .  S
C1961      C1962   1.408       .  A
C1961      C1966   1.404       .  A
C1962      C1963   1.406       .  A
C1962      H1971   1.083       .  S
C1963      C1964   1.407       .  A
C1963      H1972   1.084       .  S
C1964      C1970   1.415       .  A
C1964      C1965   1.414       .  A
C1965      C1967   1.398       .  A
C1965      C1966   1.403       .  A
C1966      H1973   1.084       .  S
C1967      C1968   1.393       .  A
C1967      H1974   1.084       .  S
C1968      C1969   1.407       .  A
C1968      H1975   1.083       .  S
C1969      C1970   1.412       .  A
C1970      H1976   1.084       .  S
C1977      C1978   1.406       .  A
C1977      C1982   1.405       .  A
C1978      C1979   1.404       .  A
C1978      H1987   1.083       .  S
C1979      C1980   1.406       .  A
C1979      H1988   1.083       .  S
C1980      C1986   1.411       .  A
C1980      C1981   1.413       .  A
C1981      C1983   1.399       .  A
C1981      C1982   1.401       .  A
C1982      H1989   1.084       .  S
C1983      C1984   1.393       .  A
C1983      H1990   1.084       .  S
C1984      C1985   1.405       .  A
C1984      H1991   1.083       .  S
C1985      C1986   1.411       .  A
C1986      H1992   1.084       .  S
C1993      C1994   1.406       .  A
C1993      C1998   1.406       .  A
C1994      C1995   1.399       .  A
C1994      H2003   1.083       .  S
C1995      C1996   1.402       .  A
C1995      H2004   1.084       .  S
C1996      C2002   1.407       .  A
C1996      C1997   1.414       .  A
C1997      C1999   1.400       .  A
C1997      C1998   1.404       .  A
C1998      H2005   1.084       .  S
C1999      C2000   1.396       .  A
C1999      H2006   1.084       .  S
C2000      C2001   1.408       .  A
C2000      H2007   1.083       .  S
C2001      C2002   1.406       .  A
C2002      H2008   1.084       .  S
C2009      C2010   1.406       .  A
C2009      C2014   1.411       .  A
C2010      C2011   1.394       .  A
C2010      H2019   1.083       .  S
C2011      C2012   1.399       .  A
C2011      H2020   1.084       .  S
C2012      C2018   1.402       .  A
C2012      C2013   1.414       .  A
C2013      C2015   1.406       .  A
C2013      C2014   1.412       .  A
C2014      H2021   1.084       .  S
C2015      C2016   1.404       .  A
C2015      H2022   1.083       .  S
C2016      C2017   1.407       .  A
C2016      H2023   1.083       .  S
C2017      C2018   1.405       .  A
C2018      H2024   1.084       .  S
C2025      C2026   1.404       .  A
C2025      C2030   1.404       .  A
C2026      C2027   1.389       .  A
C2026      H2035   1.083       .  S
C2027      C2028   1.397       .  A
C2027      H2036   1.084       .  S
C2028      C2034   1.392       .  A
C2028      C2029   1.414       .  A
C2029      C2031   1.402       .  A
C2029      C2030   1.399       .  A
C2030      H2037   1.084       .  S
C2031      C2032   1.396       .  A
C2031      H2038   1.084       .  S
C2032      C2033   1.405       .  A
C2032      H2039   1.083       .  S
C2033      C2034   1.400       .  A
C2034      H2040   1.085       .  S
C2041      C2042   1.404       .  A
C2041      C2046   1.404       .  A
C2042      C2043   1.394       .  A
C2042      H2051   1.083       .  S
C2043      C2044   1.401       .  A
C2043      H2052   1.084       .  S
C2044      C2050   1.398       .  A
C2044      C2045   1.413       .  A
C2045      C2047   1.402       .  A
C2045      C2046   1.399       .  A
C2046      H2053   1.084       .  S
C2047      C2048   1.396       .  A
C2047      H2054   1.084       .  S
C2048      C2049   1.405       .  A
C2048      H2055   1.083       .  S
C2049      C2050   1.404       .  A
C2050      H2056   1.084       .  S
C2057      C2058   1.404       .  A
C2057      C2062   1.406       .  A
C2058      C2059   1.392       .  A
C2058      H2067   1.083       .  S
C2059      C2060   1.400       .  A
C2059      H2068   1.084       .  S
C2060      C2066   1.394       .  A
C2060      C2061   1.412       .  A
C2061      C2063   1.403       .  A
C2061      C2062   1.400       .  A
C2062      H2069   1.084       .  S
C2063      C2064   1.398       .  A
C2063      H2070   1.084       .  S
C2064      C2065   1.405       .  A
C2064      H2071   1.083       .  S
C2065      C2066   1.403       .  A
C2066      H2072   1.084       .  S
C2073      C2074   1.407       .  A
C2073      C2078   1.410       .  A
C2074      C2075   1.394       .  A
C2074      H2083   1.083       .  S
C2075      C2076   1.399       .  A
C2075      H2084   1.084       .  S
C2076      C2082   1.402       .  A
C2076      C2077   1.413       .  A
C2077      C2079   1.406       .  A
C2077      C2078   1.412       .  A
C2078      H2085   1.084       .  S
C2079      C2080   1.404       .  A
C2079      H2086   1.084       .  S
C2080      C2081   1.406       .  A
C2080      H2087   1.083       .  S
C2081      C2082   1.406       .  A
C2082      H2088   1.084       .  S
C2089      C2090   1.407       .  A
C2089      C2094   1.407       .  A
C2090      C2091   1.396       .  A
C2090      H2099   1.083       .  S
C2091      C2092   1.401       .  A
C2091      H2100   1.084       .  S
C2092      C2098   1.403       .  A
C2092      C2093   1.414       .  A
C2093      C2095   1.403       .  A
C2093      C2094   1.407       .  A
C2094      H2101   1.084       .  S
C2095      C2096   1.400       .  A
C2095      H2102   1.084       .  S
C2096      C2097   1.405       .  A
C2096      H2103   1.083       .  S
C2097      C2098   1.407       .  A
C2098      H2104   1.084       .  S
C2105      C2106   1.408       .  A
C2105      C2110   1.411       .  A
C2106      C2107   1.396       .  A
C2106      H2115   1.083       .  S
C2107      C2108   1.400       .  A
C2107      H2116   1.084       .  S
C2108      C2114   1.407       .  A
C2108      C2109   1.414       .  A
C2109      C2111   1.405       .  A
C2109      C2110   1.414       .  A
C2110      H2117   1.084       .  S
C2111      C2112   1.403       .  A
C2111      H2118   1.084       .  S
C2112      C2113   1.407       .  A
C2112      H2119   1.083       .  S
C2113      C2114   1.407       .  A
C2114      H2120   1.084       .  S
C2121      C2122   1.407       .  A
C2121      C2126   1.404       .  A
C2122      C2123   1.408       .  A
C2122      H2131   1.083       .  S
C2123      C2124   1.408       .  A
C2123      H2132   1.083       .  S
C2124      C2130   1.416       .  A
C2124      C2125   1.414       .  A
C2125      C2127   1.397       .  A
C2125      C2126   1.400       .  A
C2126      H2133   1.084       .  S
C2127      C2128   1.390       .  A
C2127      H2134   1.084       .  S
C2128      C2129   1.406       .  A
C2128      H2135   1.083       .  S
C2129      C2130   1.413       .  A
C2130      H2136   1.083       .  S
C2137      C2138   1.405       .  A
C2137      C2142   1.410       .  A
C2138      C2139   1.395       .  A
C2138      H2147   1.083       .  S
C2139      C2140   1.400       .  A
C2139      H2148   1.084       .  S
C2140      C2146   1.403       .  A
C2140      C2141   1.413       .  A
C2141      C2143   1.406       .  A
C2141      C2142   1.411       .  A
C2142      H2149   1.084       .  S
C2143      C2144   1.403       .  A
C2143      H2150   1.083       .  S
C2144      C2145   1.406       .  A
C2144      H2151   1.083       .  S
C2145      C2146   1.406       .  A
C2146      H2152   1.084       .  S
C2153      C2154   1.407       .  A
C2153      C2158   1.406       .  A
C2154      C2155   1.396       .  A
C2154      H2163   1.083       .  S
C2155      C2156   1.401       .  A
C2155      H2164   1.084       .  S
C2156      C2162   1.404       .  A
C2156      C2157   1.414       .  A
C2157      C2159   1.403       .  A
C2157      C2158   1.406       .  A
C2158      H2165   1.084       .  S
C2159      C2160   1.399       .  A
C2159      H2166   1.083       .  S
C2160      C2161   1.405       .  A
C2160      H2167   1.083       .  S
C2161      C2162   1.407       .  A
C2162      H2168   1.084       .  S
C2169      C2170   1.407       .  A
C2169      C2174   1.406       .  A
C2170      C2171   1.395       .  A
C2170      H2179   1.083       .  S
C2171      C2172   1.400       .  A
C2171      H2180   1.084       .  S
C2172      C2178   1.403       .  A
C2172      C2173   1.414       .  A
C2173      C2175   1.402       .  A
C2173      C2174   1.406       .  A
C2174      H2181   1.084       .  S
C2175      C2176   1.398       .  A
C2175      H2182   1.083       .  S
C2176      C2177   1.405       .  A
C2176      H2183   1.083       .  S
C2177      C2178   1.405       .  A
C2178      H2184   1.084       .  S
C2185      C2186   1.406       .  A
C2185      C2190   1.408       .  A
C2186      C2187   1.396       .  A
C2186      H2195   1.083       .  S
C2187      C2188   1.401       .  A
C2187      H2196   1.084       .  S
C2188      C2194   1.404       .  A
C2188      C2189   1.414       .  A
C2189      C2191   1.403       .  A
C2189      C2190   1.407       .  A
C2190      H2197   1.084       .  S
C2191      C2192   1.399       .  A
C2191      H2198   1.084       .  S
C2192      C2193   1.405       .  A
C2192      H2199   1.083       .  S
C2193      C2194   1.407       .  A
C2194      H2200   1.084       .  S
C2201      C2202   1.407       .  A
C2201      C2206   1.412       .  A
C2202      C2203   1.394       .  A
C2202      H2211   1.083       .  S
C2203      C2204   1.399       .  A
C2203      H2212   1.084       .  S
C2204      C2210   1.404       .  A
C2204      C2205   1.414       .  A
C2205      C2207   1.406       .  A
C2205      C2206   1.414       .  A
C2206      H2213   1.084       .  S
C2207      C2208   1.405       .  A
C2207      H2214   1.084       .  S
C2208      C2209   1.408       .  A
C2208      H2215   1.083       .  S
C2209      C2210   1.405       .  A
C2210      H2216   1.084       .  S
C2217      C2218   1.406       .  A
C2217      C2222   1.405       .  A
C2218      C2219   1.400       .  A
C2218      H2227   1.083       .  S
C2219      C2220   1.403       .  A
C2219      H2228   1.083       .  S
C2220      C2226   1.407       .  A
C2220      C2221   1.414       .  A
C2221      C2223   1.400       .  A
C2221      C2222   1.403       .  A
C2222      H2229   1.084       .  S
C2223      C2224   1.395       .  A
C2223      H2230   1.084       .  S
C2224      C2225   1.407       .  A
C2224      H2231   1.083       .  S
C2225      C2226   1.407       .  A
C2226      H2232   1.084       .  S
C2233      C2234   1.405       .  A
C2233      C2238   1.403       .  A
C2234      C2235   1.393       .  A
C2234      H2243   1.083       .  S
C2235      C2236   1.399       .  A
C2235      H2244   1.084       .  S
C2236      C2242   1.396       .  A
C2236      C2237   1.414       .  A
C2237      C2239   1.400       .  A
C2237      C2238   1.398       .  A
C2238      H2245   1.084       .  S
C2239      C2240   1.393       .  A
C2239      H2246   1.083       .  S
C2240      C2241   1.404       .  A
C2240      H2247   1.083       .  S
C2241      C2242   1.402       .  A
C2242      H2248   1.084       .  S
C2249      C2250   1.404       .  A
C2249      C2254   1.403       .  A
C2250      C2251   1.395       .  A
C2250      H2259   1.083       .  S
C2251      C2252   1.402       .  A
C2251      H2260   1.083       .  S
C2252      C2258   1.397       .  A
C2252      C2253   1.413       .  A
C2253      C2255   1.400       .  A
C2253      C2254   1.394       .  A
C2254      H2261   1.084       .  S
C2255      C2256   1.392       .  A
C2255      H2262   1.084       .  S
C2256      C2257   1.404       .  A
C2256      H2263   1.083       .  S
C2257      C2258   1.404       .  A
C2258      H2264   1.084       .  S
C2265      C2266   1.403       .  A
C2265      C2270   1.404       .  A
C2266      C2267   1.390       .  A
C2266      H2275   1.083       .  S
C2267      C2268   1.398       .  A
C2267      H2276   1.084       .  S
C2268      C2274   1.392       .  A
C2268      C2269   1.413       .  A
C2269      C2271   1.402       .  A
C2269      C2270   1.396       .  A
C2270      H2277   1.084       .  S
C2271      C2272   1.395       .  A
C2271      H2278   1.083       .  S
C2272      C2273   1.404       .  A
C2272      H2279   1.083       .  S
C2273      C2274   1.400       .  A
C2274      H2280   1.084       .  S
C2281      C2282   1.406       .  A
C2281      C2286   1.414       .  A
C2282      C2283   1.394       .  A
C2282      H2291   1.083       .  S
C2283      C2284   1.399       .  A
C2283      H2292   1.084       .  S
C2284      C2290   1.403       .  A
C2284      C2285   1.413       .  A
C2285      C2287   1.409       .  A
C2285      C2286   1.417       .  A
C2286      H2293   1.084       .  S
C2287      C2288   1.409       .  A
C2287      H2294   1.084       .  S
C2288      C2289   1.406       .  A
C2288      H2295   1.083       .  S
C2289      C2290   1.406       .  A
C2290      H2296   1.085       .  S
C2297      C2298   1.406       .  A
C2297      C2302   1.411       .  A
C2298      C2299   1.393       .  A
C2298      H2307   1.083       .  S
C2299      C2300   1.398       .  A
C2299      H2308   1.084       .  S
C2300      C2306   1.402       .  A
C2300      C2301   1.414       .  A
C2301      C2303   1.406       .  A
C2301      C2302   1.413       .  A
C2302      H2309   1.084       .  S
C2303      C2304   1.405       .  A
C2303      H2310   1.084       .  S
C2304      C2305   1.406       .  A
C2304      H2311   1.083       .  S
C2305      C2306   1.405       .  A
C2306      H2312   1.084       .  S
C2313      C2314   1.406       .  A
C2313      C2318   1.405       .  A
C2314      C2315   1.400       .  A
C2314      H2323   1.083       .  S
C2315      C2316   1.404       .  A
C2315      H2324   1.084       .  S
C2316      C2322   1.404       .  A
C2316      C2317   1.413       .  A
C2317      C2319   1.400       .  A
C2317      C2318   1.398       .  A
C2318      H2325   1.084       .  S
C2319      C2320   1.394       .  A
C2319      H2326   1.084       .  S
C2320      C2321   1.405       .  A
C2320      H2327   1.083       .  S
C2321      C2322   1.408       .  A
C2322      H2328   1.084       .  S
C2329      C2330   1.407       .  A
C2329      C2334   1.409       .  A
C2330      C2331   1.396       .  A
C2330      H2339   1.083       .  S
C2331      C2332   1.400       .  A
C2331      H2340   1.084       .  S
C2332      C2338   1.404       .  A
C2332      C2333   1.414       .  A
C2333      C2335   1.404       .  A
C2333      C2334   1.410       .  A
C2334      H2341   1.084       .  S
C2335      C2336   1.402       .  A
C2335      H2342   1.083       .  S
C2336      C2337   1.406       .  A
C2336      H2343   1.083       .  S
C2337      C2338   1.406       .  A
C2338      H2344   1.084       .  S
C2345      C2346   1.407       .  A
C2345      C2350   1.407       .  A
C2346      C2347   1.405       .  A
C2346      H2355   1.083       .  S
C2347      C2348   1.405       .  A
C2347      H2356   1.084       .  S
C2348      C2354   1.414       .  A
C2348      C2349   1.414       .  A
C2349      C2351   1.400       .  A
C2349      C2350   1.406       .  A
C2350      H2357   1.084       .  S
C2351      C2352   1.395       .  A
C2351      H2358   1.084       .  S
C2352      C2353   1.408       .  A
C2352      H2359   1.083       .  S
C2353      C2354   1.410       .  A
C2354      H2360   1.084       .  S
C2361      C2362   1.405       .  A
C2361      C2366   1.405       .  A
C2362      C2363   1.398       .  A
C2362      H2371   1.083       .  S
C2363      C2364   1.402       .  A
C2363      H2372   1.084       .  S
C2364      C2370   1.405       .  A
C2364      C2365   1.414       .  A
C2365      C2367   1.400       .  A
C2365      C2366   1.402       .  A
C2366      H2373   1.084       .  S
C2367      C2368   1.395       .  A
C2367      H2374   1.084       .  S
C2368      C2369   1.407       .  A
C2368      H2375   1.083       .  S
C2369      C2370   1.405       .  A
C2370      H2376   1.084       .  S
C2377      C2378   1.406       .  A
C2377      C2382   1.405       .  A
C2378      C2379   1.400       .  A
C2378      H2387   1.083       .  S
C2379      C2380   1.403       .  A
C2379      H2388   1.083       .  S
C2380      C2386   1.407       .  A
C2380      C2381   1.414       .  A
C2381      C2383   1.400       .  A
C2381      C2382   1.401       .  A
C2382      H2389   1.084       .  S
C2383      C2384   1.394       .  A
C2383      H2390   1.084       .  S
C2384      C2385   1.405       .  A
C2384      H2391   1.083       .  S
C2385      C2386   1.408       .  A
C2386      H2392   1.084       .  S
C2393      C2394   1.407       .  A
C2393      C2398   1.410       .  A
C2394      C2395   1.397       .  A
C2394      H2403   1.083       .  S
C2395      C2396   1.401       .  A
C2395      H2404   1.084       .  S
C2396      C2402   1.407       .  A
C2396      C2397   1.414       .  A
C2397      C2399   1.405       .  A
C2397      C2398   1.413       .  A
C2398      H2405   1.084       .  S
C2399      C2400   1.403       .  A
C2399      H2406   1.084       .  S
C2400      C2401   1.407       .  A
C2400      H2407   1.083       .  S
C2401      C2402   1.407       .  A
C2402      H2408   1.084       .  S
C2409      C2410   1.407       .  A
C2409      C2414   1.408       .  A
C2410      C2411   1.403       .  A
C2410      H2419   1.083       .  S
C2411      C2412   1.405       .  A
C2411      H2420   1.084       .  S
C2412      C2418   1.412       .  A
C2412      C2413   1.414       .  A
C2413      C2415   1.401       .  A
C2413      C2414   1.407       .  A
C2414      H2421   1.084       .  S
C2415      C2416   1.397       .  A
C2415      H2422   1.084       .  S
C2416      C2417   1.407       .  A
C2416      H2423   1.083       .  S
C2417      C2418   1.410       .  A
C2418      H2424   1.084       .  S
C2425      C2426   1.405       .  A
C2425      C2430   1.409       .  A
C2426      C2427   1.391       .  A
C2426      H2435   1.083       .  S
C2427      C2428   1.398       .  A
C2427      H2436   1.084       .  S
C2428      C2434   1.398       .  A
C2428      C2429   1.414       .  A
C2429      C2431   1.406       .  A
C2429      C2430   1.410       .  A
C2430      H2437   1.084       .  S
C2431      C2432   1.404       .  A
C2431      H2438   1.084       .  S
C2432      C2433   1.407       .  A
C2432      H2439   1.083       .  S
C2433      C2434   1.403       .  A
C2434      H2440   1.084       .  S
C2441      C2442   1.406       .  A
C2441      C2446   1.406       .  A
C2442      C2443   1.397       .  A
C2442      H2451   1.083       .  S
C2443      C2444   1.401       .  A
C2443      H2452   1.084       .  S
C2444      C2450   1.406       .  A
C2444      C2445   1.415       .  A
C2445      C2447   1.400       .  A
C2445      C2446   1.405       .  A
C2446      H2453   1.084       .  S
C2447      C2448   1.396       .  A
C2447      H2454   1.084       .  S
C2448      C2449   1.407       .  A
C2448      H2455   1.083       .  S
C2449      C2450   1.405       .  A
C2450      H2456   1.084       .  S
C2457      C2458   1.406       .  A
C2457      C2462   1.407       .  A
C2458      C2459   1.394       .  A
C2458      H2467   1.083       .  S
C2459      C2460   1.400       .  A
C2459      H2468   1.084       .  S
C2460      C2466   1.399       .  A
C2460      C2461   1.413       .  A
C2461      C2463   1.404       .  A
C2461      C2462   1.405       .  A
C2462      H2469   1.084       .  S
C2463      C2464   1.400       .  A
C2463      H2470   1.084       .  S
C2464      C2465   1.405       .  A
C2464      H2471   1.083       .  S
C2465      C2466   1.404       .  A
C2466      H2472   1.084       .  S
