geometry optimzed in LAMMPS
_audit_creation_date              2020-11-30 
_audit_creation_method            'lammps2cif' 
_symmetry_space_group_name_H-M    'P1' 
_symmetry_Int_Tables_number       1 
_symmetry_cell_setting            triclinic 
loop_ 
_symmetry_equiv_pos_as_xyz 
  x,y,z 
_cell_length_a                    31.447834306463402 
_cell_length_b                    31.658288009286444 
_cell_length_c                    39.733544140436294 
_cell_angle_alpha                 90.82584474883203 
_cell_angle_beta                  88.88488803364498 
_cell_angle_gamma                 121.66362639042566 
loop_ 
_atom_site_label 
_atom_site_type_symbol 
_atom_site_fract_x 
_atom_site_fract_y 
_atom_site_fract_z 
_atom_site_charge 
C1          C  0.01145148  0.70511494  0.31064495     0.03070
C2          C  0.00302808  0.66949805  0.33456490    -0.13080
C3          C  0.03940932  0.67930523  0.35819476     0.00570
C4          C  0.08588365  0.72378841  0.35671794    -0.11610
C5          C  0.09584318  0.76094232  0.33297067     0.03060
C6          C  0.05715952  0.75074557  0.31031636    -0.11030
H7          H  0.96817495  0.63390938  0.33479457     0.08660
H8          H  0.11325698  0.72834931  0.37464948     0.06190
H9          H  0.06107903  0.77786693  0.29240565     0.06030
C10         C  0.22543921  0.87074777  0.35814738     0.03070
C11         C  0.18040769  0.82452855  0.35858363    -0.13080
C12         C  0.14509701  0.81025559  0.33248574     0.00570
C13         C  0.15772563  0.84412627  0.30572843    -0.11610
C14         C  0.20026487  0.89211248  0.30696591     0.03060
C15         C  0.23343184  0.90522257  0.33353127    -0.11030
H16         H  0.17442962  0.80041860  0.37933518     0.08660
H17         H  0.13564454  0.83378898  0.28331430     0.06190
H18         H  0.26650584  0.94218548  0.33455056     0.06030
C19         C  0.86561448  0.22705298  0.64320205     0.03070
C20         C  0.89720977  0.23986490  0.67077056    -0.13080
C21         C  0.88394006  0.20780702  0.69815467     0.00570
C22         C  0.83788371  0.16251386  0.69806875    -0.11610
C23         C  0.80630647  0.14706435  0.66984403     0.03060
C24         C  0.82191275  0.17977414  0.64209154    -0.11030
H25         H  0.93262096  0.27492375  0.67080013     0.08660
H26         H  0.82781010  0.13980334  0.72025966     0.06190
H27         H  0.80131385  0.16859371  0.61894222     0.06030
C28         C  0.70595595  0.01040065  0.68801183     0.03070
C29         C  0.74916064  0.05800836  0.69077194    -0.13080
C30         C  0.75846399  0.09681536  0.66863050     0.00570
C31         C  0.72098889  0.08714763  0.64528151    -0.11610
C32         C  0.67797304  0.03980144  0.64220878     0.03060
C33         C  0.67199704  0.00133719  0.66251168    -0.11030
H34         H  0.77436318  0.06445327  0.71080737     0.08660
H35         H  0.72395046  0.11632856  0.62974758     0.06190
H36         H  0.63917430  0.96451446  0.65954851     0.06030
O37         O  0.47031704  0.89854439  0.47716407    -0.73000
O38         O  0.39875691  0.94105535  0.54140674    -0.73980
O39         O  0.37872881  0.89684784  0.47686275    -0.62600
O40         O  0.48953385  0.94229174  0.54287998    -0.71010
O41         O  0.53017065  0.01700877  0.51963653    -0.70570
O42         O  0.41882168  0.97164163  0.45359133    -0.61820
O43         O  0.43937241  0.01598737  0.51860491    -0.74330
O44         O  0.50975519  0.97346409  0.45458861    -0.73110
Cu45       Cu  0.43301783  0.91702788  0.51036877     1.04560
Cu46       Cu  0.47589768  0.99709082  0.48580444     1.04330
C47         C  0.50157956  0.92955128  0.45563420     0.93190
C48         C  0.40795984  0.98544012  0.54010894     0.92330
C49         C  0.38113713  0.92726031  0.45506610     0.84480
C50         C  0.52717331  0.98669606  0.54181713     0.90750
O51         O  0.94793463  0.40530641  0.45434493    -0.73000
O52         O  0.89757268  0.46597693  0.52141051    -0.73980
O53         O  0.94361198  0.49192285  0.45678992    -0.62600
O54         O  0.90117712  0.37805229  0.52003793    -0.71010
O55         O  0.97595923  0.41850994  0.54323209    -0.70570
O56         O  0.01886517  0.53210898  0.47973291    -0.61820
O57         O  0.97235028  0.50612138  0.54483053    -0.74330
O58         O  0.02237387  0.44508915  0.47816850    -0.73110
Cu59       Cu  0.91991595  0.43372584  0.48737311     1.04560
Cu60       Cu  0.99991229  0.47681050  0.51237953     1.04330
C61         C  0.99339256  0.41663824  0.45508993     0.93190
C62         C  0.92725136  0.49571290  0.54375639     0.92330
C63         C  0.98814908  0.52944391  0.45799543     0.84480
C64         C  0.93171298  0.38043808  0.54190708     0.90750
C65         C  0.52749338  0.91731945  0.97868359     0.03070
C66         C  0.56493876  0.94679000  0.00157850    -0.13080
C67         C  0.55973319  0.97863084  0.02364122     0.00570
C68         C  0.51817872  0.98348976  0.02104903    -0.11610
C69         C  0.47830839  0.95237578  0.99951725     0.03060
C70         C  0.48375160  0.91892156  0.97848842    -0.11030
H71         H  0.59881122  0.94573351  0.00178081     0.08660
H72         H  0.51824797  0.01236643  0.03576696     0.06190
H73         H  0.45458716  0.89364885  0.96169789     0.06030
C74         C  0.37409587  0.97472906  0.02781663     0.03070
C75         C  0.41959562  0.97644939  0.02645265    -0.13080
C76         C  0.43103375  0.95363891  0.99979600     0.00570
C77         C  0.39616053  0.93131512  0.97361729    -0.11610
C78         C  0.34982661  0.92760549  0.97550179     0.03060
C79         C  0.33899599  0.94909609  0.00264525    -0.11030
H80         H  0.44588262  0.99662850  0.04604113     0.08660
H81         H  0.40470788  0.91757231  0.95110591     0.06190
H82         H  0.30341280  0.94691438  0.00372521     0.06030
C83         C  0.97229603  0.37282546  0.97136393     0.03070
C84         C  0.94576773  0.33787999  0.99659698    -0.13080
C85         C  0.92273516  0.34832200  0.02289600     0.00570
C86         C  0.92462693  0.39348431  0.02366283    -0.11610
C87         C  0.94915162  0.42905054  0.99777080     0.03060
C88         C  0.97425089  0.41816653  0.97222912    -0.11030
H89         H  0.94427445  0.30286423  0.99636077     0.08660
H90         H  0.90754802  0.40010727  0.04520743     0.06190
H91         H  0.99688891  0.44472294  0.95324460     0.06030
C92         C  0.92093363  0.53036819  0.02229590     0.03070
C93         C  0.91939571  0.48518577  0.02106553    -0.13080
C94         C  0.94946429  0.47715303  0.99793319     0.00570
C95         C  0.97862268  0.51541476  0.97446072    -0.11610
C96         C  0.97899246  0.55980739  0.97497405     0.03060
C97         C  0.95220228  0.56802247  0.99975973    -0.11030
H98         H  0.89352439  0.45660941  0.03804763     0.08660
H99         H  0.00113338  0.51197641  0.95516912     0.06190
H100        H  0.95437378  0.60334033  0.00064964     0.06030
C101        C  0.05083335  0.32840055  0.34962477     0.03070
C102        C  0.01064955  0.29429686  0.32981603    -0.13080
C103        C  0.01337643  0.25854355  0.31039273     0.00570
C104        C  0.05649632  0.25596457  0.31182726    -0.11610
C105        C  0.09836976  0.29081933  0.33052053     0.03060
C106        C  0.09522104  0.32779182  0.34863414    -0.11030
H107        H  0.97667713  0.29506977  0.32983351     0.08660
H108        H  0.05657291  0.22603612  0.29843031     0.06190
H109        H  0.12668819  0.35602325  0.36262974     0.06030
C110        C  0.19336968  0.25382976  0.30905417     0.03070
C111        C  0.15436324  0.26258001  0.30615342    -0.13080
C112        C  0.14374302  0.28668743  0.33217625     0.00570
C113        C  0.17681490  0.30642061  0.35963305    -0.11610
C114        C  0.21694560  0.29900899  0.36233720     0.03060
C115        C  0.22310956  0.27052235  0.33763161    -0.11030
H116        H  0.13353990  0.25183257  0.28303765     0.08660
H117        H  0.17255479  0.32871484  0.37843489     0.06190
H118        H  0.25339909  0.26377618  0.33958012     0.06030
O119        O  0.22874915  0.13439289  0.18751148    -0.73000
O120        O  0.27531154  0.06871416  0.12256598    -0.73980
O121        O  0.22955056  0.04524998  0.18752260    -0.62600
O122        O  0.27518040  0.15775636  0.12273781    -0.71010
O123        O  0.35060671  0.19665016  0.14503978    -0.70570
O124        O  0.30439942  0.08574295  0.21073794    -0.61820
O125        O  0.35000222  0.10695613  0.14622626    -0.74330
O126        O  0.30415444  0.17530156  0.20983744    -0.73110
Cu127      Cu  0.24955984  0.10014881  0.15429929     1.04560
Cu128      Cu  0.32984063  0.14258049  0.17885339     1.04330
C129        C  0.25931915  0.16569381  0.20881637     0.93190
C130        C  0.31979853  0.07757172  0.12397839     0.92330
C131        C  0.26025219  0.04764584  0.20920090     0.84480
C132        C  0.32033878  0.19450724  0.12317129     0.90750
C133        C  0.65091051  0.71002993  0.31219993     0.03070
C134        C  0.62645541  0.67705441  0.33867837    -0.13080
C135        C  0.59954626  0.68637566  0.36275137     0.00570
C136        C  0.59703866  0.72912196  0.36050296    -0.11610
C137        C  0.62399331  0.76488964  0.33513975     0.03060
C138        C  0.65167183  0.75468139  0.31135564    -0.11030
H139        H  0.62746857  0.64342211  0.34018646     0.08660
H140        H  0.57321292  0.73315569  0.37847425     0.06190
H141        H  0.67359893  0.78039749  0.29160109     0.06030
C142        C  0.59761191  0.86763940  0.35726189     0.03070
C143        C  0.60376605  0.82701495  0.36024165    -0.13080
C144        C  0.62199899  0.81141115  0.33296874     0.00570
C145        C  0.63835367  0.84106100  0.30365932    -0.11610
C146        C  0.63860493  0.88537798  0.30225098     0.03060
C147        C  0.61612336  0.89714420  0.32836621    -0.11030
H148        H  0.59502101  0.80866638  0.38424731     0.08660
H149        H  0.65126006  0.83075781  0.28153129     0.06190
H150        H  0.61396671  0.93008565  0.32642355     0.06030
O151        O  0.73282932  0.60747195  0.21170570    -0.73000
O152        O  0.79795457  0.55782724  0.14836313    -0.73980
O153        O  0.82158316  0.60565431  0.21267596    -0.62600
O154        O  0.70912200  0.56020908  0.14766766    -0.71010
O155        O  0.74832767  0.63552665  0.12531993    -0.70570
O156        O  0.86468866  0.67794060  0.18626762    -0.61820
O157        O  0.83553502  0.63033142  0.12213518    -0.74330
O158        O  0.77730682  0.68262901  0.18930476    -0.73110
Cu159      Cu  0.76400469  0.58019565  0.18096799     1.04560
Cu160      Cu  0.80797776  0.65916658  0.15484745     1.04330
C161        C  0.74547887  0.65295821  0.21100354     0.93190
C162        C  0.82613928  0.58600882  0.12466357     0.92330
C163        C  0.86071023  0.64891971  0.20976233     0.84480
C164        C  0.71077894  0.59105343  0.12649899     0.90750
O165        O  0.71400203  0.10491192  0.14440288    -0.73000
O166        O  0.82455571  0.16837495  0.21184982    -0.73980
O167        O  0.80549189  0.19668620  0.14808025    -0.62600
O168        O  0.73188854  0.07731510  0.20737980    -0.71010
O169        O  0.77043811  0.04328553  0.18219881    -0.70570
O170        O  0.84443854  0.16332449  0.12237646    -0.61820
O171        O  0.86274065  0.13478092  0.18570223    -0.74330
O172        O  0.75309034  0.07174462  0.11873987    -0.73110
Cu173      Cu  0.76782362  0.13814644  0.17890047     1.04560
Cu174      Cu  0.80909274  0.10216678  0.15139240     1.04330
C175        C  0.71665381  0.07868071  0.12067316     0.93190
C176        C  0.86085534  0.16103995  0.20964559     0.92330
C177        C  0.83539493  0.19815528  0.12528130     0.84480
C178        C  0.73903675  0.04135118  0.20403155     0.90750
C179        C  0.35128162  0.37124915  0.97155198     0.03070
C180        C  0.34577427  0.33325064  0.99245829    -0.13080
C181        C  0.37584814  0.34396202  0.02054801     0.00570
C182        C  0.41845685  0.39161409  0.02394194    -0.11610
C183        C  0.42789587  0.43034608  0.00180636     0.03060
C184        C  0.39097609  0.42000186  0.97764980    -0.11030
H185        H  0.31617328  0.29521541  0.98792245     0.08660
H186        H  0.44312211  0.39759806  0.04433603     0.06190
H187        H  0.39183618  0.44976545  0.96428580     0.06030
C188        C  0.53382733  0.56159527  0.97765693     0.03070
C189        C  0.48985878  0.51465787  0.97663372    -0.13080
C190        C  0.47549090  0.48084931  0.00357319     0.00570
C191        C  0.50865178  0.49518130  0.03096139    -0.11610
C192        C  0.55449299  0.54072435  0.03099830     0.03060
C193        C  0.56667511  0.57367785  0.00433228    -0.11030
H194        H  0.46808350  0.50479163  0.95403279     0.08660
H195        H  0.50016858  0.47156570  0.05248348     0.06190
H196        H  0.60219604  0.60862307  0.00406105     0.06030
C197        C  0.86819468  0.59694377  0.63867328     0.03070
C198        C  0.90534544  0.62688171  0.66177271    -0.13080
C199        C  0.89489756  0.64820015  0.68920776     0.00570
C200        C  0.84927394  0.64613649  0.69069853    -0.11610
C201        C  0.81193967  0.61959261  0.66629989     0.03060
C202        C  0.82124106  0.59213626  0.64184996    -0.11030
H203        H  0.94169405  0.63082779  0.65979537     0.08660
H204        H  0.84345875  0.66408515  0.71193289     0.06190
H205        H  0.79185365  0.56507212  0.62609740     0.06030
C206        C  0.70518582  0.63854580  0.69524713     0.03070
C207        C  0.75179329  0.64257467  0.69313699    -0.13080
C208        C  0.76292842  0.61817145  0.66737576     0.00570
C209        C  0.72719222  0.59418978  0.64167745    -0.11610
C210        C  0.68030679  0.58948775  0.64373175     0.03060
C211        C  0.66926331  0.61054485  0.67103995    -0.11030
H212        H  0.77936089  0.66685171  0.71095040     0.08660
H213        H  0.73573992  0.58082702  0.61904004     0.06190
H214        H  0.63310000  0.60708864  0.67258526     0.06030
O215        O  0.55497867  0.79538574  0.85399581    -0.73000
O216        O  0.60301956  0.73032183  0.78923566    -0.73980
O217        O  0.55944996  0.70834917  0.85507166    -0.62600
O218        O  0.59883908  0.81723750  0.78813981    -0.71010
O219        O  0.67455015  0.85975584  0.80988154    -0.70570
O220        O  0.63547349  0.75052738  0.87656486    -0.61820
O221        O  0.67877527  0.77243864  0.81127215    -0.74330
O222        O  0.63046886  0.83712575  0.87646579    -0.73110
Cu223      Cu  0.57645774  0.76138238  0.82083646     1.04560
Cu224      Cu  0.65746634  0.80661647  0.84431986     1.04330
C225        C  0.58501244  0.82575469  0.87591878     0.93190
C226        C  0.64829635  0.74124728  0.78988527     0.92330
C227        C  0.59138783  0.71215597  0.87624843     0.84480
C228        C  0.64306564  0.85545854  0.78809341     0.90750
C229        C  0.30393072  0.03743115  0.63760283     0.03070
C230        C  0.28544801  0.00666750  0.66581873    -0.13080
C231        C  0.26559278  0.01889657  0.69332456     0.00570
C232        C  0.26761116  0.06415324  0.69369945    -0.11610
C233        C  0.28483564  0.09552692  0.66531628     0.03060
C234        C  0.30249807  0.08103385  0.63711262    -0.11030
H235        H  0.28596383  0.97270274  0.66621429     0.08660
H236        H  0.25581659  0.07433322  0.71650317     0.06190
H237        H  0.31498792  0.10289483  0.61440063     0.06030
C238        C  0.25469797  0.19479728  0.68946358     0.03070
C239        C  0.25307854  0.14967700  0.68791207    -0.13080
C240        C  0.28434020  0.14281139  0.66532965     0.00570
C241        C  0.31517396  0.18181684  0.64294151    -0.11610
C242        C  0.31411434  0.22552775  0.64270802     0.03060
C243        C  0.28400209  0.23180476  0.66602213    -0.11030
H244        H  0.22665362  0.12010035  0.70419659     0.08660
H245        H  0.34060844  0.17919540  0.62562747     0.06190
H246        H  0.28331893  0.26567726  0.66590256     0.06030
O247        O  0.12743721  0.22204645  0.81118433    -0.73000
O248        O  0.06578996  0.27116720  0.87862425    -0.73980
O249        O  0.03940446  0.22602451  0.81383947    -0.62600
O250        O  0.15340145  0.26660697  0.87586914    -0.71010
O251        O  0.19548420  0.34117874  0.85281364    -0.70570
O252        O  0.08000357  0.30076503  0.79075279    -0.61820
O253        O  0.10692786  0.34574220  0.85511209    -0.74330
O254        O  0.16774886  0.29650703  0.78746611    -0.73110
Cu255      Cu  0.09513886  0.24391425  0.84569076     1.04560
Cu256      Cu  0.13913305  0.32369182  0.82071849     1.04330
C257        C  0.15679539  0.25156497  0.78839912     0.93190
C258        C  0.07640967  0.31602946  0.87735429     0.92330
C259        C  0.04152595  0.25683749  0.79248471     0.84480
C260        C  0.19218145  0.31021907  0.87466684     0.90750
O261        O  0.15981529  0.84115151  0.87772277    -0.73000
O262        O  0.04603131  0.77230531  0.81381111    -0.73980
O263        O  0.06774921  0.74908597  0.87791438    -0.62600
O264        O  0.13821130  0.86373957  0.81416342    -0.71010
O265        O  0.17599274  0.82813100  0.79010612    -0.70570
O266        O  0.10452477  0.71296864  0.85292027    -0.61820
O267        O  0.08294213  0.73642537  0.78898716    -0.74330
O268        O  0.19647483  0.80441110  0.85369868    -0.73110
Cu269      Cu  0.10155621  0.80770900  0.84679505     1.04560
Cu270      Cu  0.14115037  0.76913879  0.82049343     1.04330
C271        C  0.19614402  0.83401234  0.87573886     0.93190
C272        C  0.04690627  0.74414394  0.79085504     0.92330
C273        C  0.07572830  0.71350466  0.87574775     0.84480
C274        C  0.16884414  0.86422298  0.79236310     0.90750
O275        O  0.50754084  0.49368506  0.45575029    -0.73000
O276        O  0.43995292  0.37741385  0.51887669    -0.73980
O277        O  0.41773290  0.39857564  0.45491897    -0.62600
O278        O  0.52964629  0.47117941  0.51982806    -0.71010
O279        O  0.49058759  0.50550928  0.54376992    -0.70570
O280        O  0.37698383  0.43071530  0.47932760    -0.61820
O281        O  0.40133653  0.41158530  0.54395627    -0.74330
O282        O  0.46629124  0.52570723  0.47994040    -0.73110
Cu283      Cu  0.47511930  0.43411489  0.48641681     1.04560
Cu284      Cu  0.43231511  0.46946525  0.51258601     1.04330
C285        C  0.49740173  0.52783061  0.45793421     0.93190
C286        C  0.41060724  0.37692897  0.54174960     0.92330
C287        C  0.37997236  0.40345501  0.45646489     0.84480
C288        C  0.52777022  0.49957120  0.54217385     0.90750
C289        C  0.32946109  0.25160035  0.58297576    -0.20360
C290        C  0.34248583  0.26390178  0.61688249    -0.06930
C291        C  0.38017269  0.31285384  0.62558954     0.13940
C292        C  0.40215675  0.34889731  0.60031712    -0.20420
C293        C  0.38807972  0.33684679  0.56664073    -0.06940
C294        C  0.35191684  0.28763903  0.55767237     0.13930
C295        C  0.33574009  0.27369905  0.52170370    -0.23770
H296        H  0.30058457  0.21397216  0.57645229     0.15210
H297        H  0.43051884  0.38675125  0.60681567     0.15240
C298        C  0.39820686  0.32690885  0.66123970    -0.23720
H299        H  0.30625249  0.23383636  0.51919704     0.05450
H300        H  0.36813254  0.28080117  0.50568148     0.08680
H301        H  0.32062762  0.29608903  0.51237352     0.08680
H302        H  0.41112191  0.30255330  0.67034265     0.08660
H303        H  0.36786743  0.32311821  0.67803744     0.08660
H304        H  0.42990493  0.36596751  0.66303473     0.05440
C305        C  0.19345100  0.21898551  0.70499016    -0.20360
C306        C  0.22602538  0.20414570  0.71549226    -0.06930
C307        C  0.23443848  0.20353954  0.75034688     0.13940
C308        C  0.20982032  0.21751897  0.77366956    -0.20420
C309        C  0.17862095  0.23379040  0.76297718    -0.06940
C310        C  0.17006294  0.23431650  0.72827956     0.13930
C311        C  0.13610224  0.25076797  0.71576724    -0.23770
H312        H  0.18724542  0.21967291  0.67831049     0.15210
H313        H  0.21646090  0.21764444  0.80035948     0.15240
C314        C  0.27148981  0.19116767  0.76306613    -0.23720
H315        H  0.13242920  0.24741512  0.68796226     0.05450
H316        H  0.15123766  0.29019656  0.72265012     0.08680
H317        H  0.09830779  0.22750685  0.72715460     0.08680
H318        H  0.30865112  0.21591372  0.75110976     0.08660
H319        H  0.25878140  0.15194575  0.75733389     0.08660
H320        H  0.27591180  0.19615055  0.79077120     0.05440
C321        C  0.26958277  0.96788470  0.73847289    -0.20360
C322        C  0.24143009  0.98307521  0.72118629    -0.06930
C323        C  0.18975564  0.96035176  0.72841757     0.13940
C324        C  0.16754113  0.92278477  0.75267021    -0.20420
C325        C  0.19531361  0.90637376  0.76904432    -0.06940
C326        C  0.24713960  0.92963669  0.76226468     0.13930
C327        C  0.27908081  0.91490412  0.78035919    -0.23770
H328        H  0.30914718  0.98541264  0.73275790     0.15210
H329        H  0.12781963  0.90476127  0.75795929     0.15240
C330        C  0.15729717  0.97352918  0.70937304    -0.23720
H331        H  0.31919155  0.93895409  0.77329362     0.05450
H332        H  0.26742480  0.87613466  0.77383973     0.08680
H333        H  0.27543742  0.91820296  0.80797482     0.08680
H334        H  0.16044518  0.96826361  0.68194351     0.08660
H335        H  0.16884237  0.01262592  0.71448456     0.08660
H336        H  0.11732049  0.94984972  0.71687707     0.05440
C337        C  0.58695716  0.49651950  0.58075854    -0.20360
C338        C  0.56828198  0.52413748  0.56699794    -0.06930
C339        C  0.58818115  0.57381477  0.57749144     0.13940
C340        C  0.62587643  0.59433967  0.60165444    -0.20420
C341        C  0.64367028  0.56636612  0.61612071    -0.06940
C342        C  0.62389681  0.51669997  0.60552203     0.13930
C343        C  0.63945734  0.48393248  0.62133864    -0.23770
H344        H  0.57136431  0.45830549  0.57282310     0.15210
H345        H  0.64123256  0.63246770  0.60972106     0.15240
C346        C  0.57070843  0.60575663  0.56290757    -0.23720
H347        H  0.61719167  0.44518129  0.61180449     0.05450
H348        H  0.63382389  0.48308948  0.64904963     0.08680
H349        H  0.67920738  0.49772744  0.61542968     0.08680
H350        H  0.53091971  0.59061856  0.56975925     0.08660
H351        H  0.57519032  0.60704783  0.53508078     0.08660
H352        H  0.59246490  0.64443675  0.57263220     0.05440
C353        C  0.67688434  0.69673510  0.70855398    -0.20360
C354        C  0.69472958  0.66731522  0.72047964    -0.06930
C355        C  0.69892436  0.66391009  0.75566863     0.13940
C356        C  0.68500641  0.68987650  0.77773978    -0.20420
C357        C  0.66543835  0.71751889  0.76562236    -0.06940
C358        C  0.66158947  0.72128312  0.73063829     0.13930
C359        C  0.64208456  0.75177325  0.71649008    -0.23770
H360        H  0.67410844  0.69983904  0.68164923     0.15210
H361        H  0.68780643  0.68726086  0.80467933     0.15240
C362        C  0.71513500  0.63097619  0.77033624    -0.23720
H363        H  0.64340735  0.75215320  0.68853290     0.05450
H364        H  0.66505294  0.79070797  0.72556237     0.08680
H365        H  0.60262256  0.73610827  0.72452329     0.08680
H366        H  0.75494011  0.64538769  0.76424293     0.08660
H367        H  0.69163948  0.59263878  0.76035044     0.08660
H368        H  0.71128586  0.62922444  0.79821426     0.05440
C369        C  0.94752849  0.72004297  0.72695216    -0.20360
C370        C  0.93134388  0.67119554  0.71697106    -0.06930
C371        C  0.95120623  0.64567773  0.73306948     0.13940
C372        C  0.98932178  0.67091115  0.75653989    -0.20420
C373        C  0.00598594  0.71987342  0.76622967    -0.06940
C374        C  0.98411677  0.74453009  0.75169399     0.13930
C375        C  0.00045132  0.79719984  0.76105230    -0.23770
H376        H  0.93206145  0.73943431  0.71487158     0.15210
H377        H  0.00513497  0.65152188  0.76820580     0.15240
C378        C  0.93197890  0.59134649  0.72732379    -0.23720
H379        H  0.98123826  0.81134357  0.74590466     0.05450
H380        H  0.04129370  0.82185081  0.75662446     0.08680
H381        H  0.99135025  0.79919866  0.78792564     0.08680
H382        H  0.96146852  0.58718794  0.71481462     0.08660
H383        H  0.89772606  0.57219326  0.71206642     0.08660
H384        H  0.92211858  0.57197011  0.75192250     0.05440
C385        C  0.59216589  0.61676454  0.93295109    -0.20360
C386        C  0.54652979  0.59802352  0.95036001    -0.06930
C387        C  0.51545520  0.61653285  0.94290545     0.13940
C388        C  0.53068542  0.65294063  0.91801815    -0.20420
C389        C  0.57672395  0.67231185  0.90107573    -0.06940
C390        C  0.60780219  0.65383549  0.90851486     0.13930
C391        C  0.65681581  0.67204651  0.89022569    -0.23770
H392        H  0.61586301  0.60250304  0.93874933     0.15210
H393        H  0.50718149  0.66751278  0.91244666     0.15240
C394        C  0.46749325  0.60000662  0.96221006    -0.23720
H395        H  0.67476706  0.65147912  0.89788852     0.05450
H396        H  0.68318443  0.71188733  0.89589997     0.08680
H397        H  0.65046750  0.66683681  0.86270172     0.08680
H398        H  0.47514130  0.60617352  0.98957707     0.08660
H399        H  0.44009457  0.56016742  0.95741162     0.08660
H400        H  0.44994720  0.62100646  0.95466505     0.05440
C401        C  0.28251955  0.36059194  0.88973443    -0.20360
C402        C  0.23299759  0.32525684  0.89919787    -0.06930
C403        C  0.22340498  0.30585103  0.93223716     0.13940
C404        C  0.26218724  0.32545385  0.95537262    -0.20420
C405        C  0.31204466  0.35923402  0.94593116    -0.06940
C406        C  0.32243446  0.37639125  0.91217164     0.13930
C407        C  0.37505732  0.40888295  0.89879019    -0.23770
H408        H  0.29027580  0.37465792  0.86421949     0.15210
H409        H  0.25347806  0.31268347  0.98107222     0.15240
C410        C  0.17294530  0.26364520  0.94361363    -0.23720
H411        H  0.37583623  0.41242741  0.87097831     0.05450
H412        H  0.39771874  0.39257046  0.90501218     0.08680
H413        H  0.39244092  0.44689123  0.90928442     0.08680
H414        H  0.16312994  0.22962298  0.92901466     0.08660
H415        H  0.14437773  0.27312357  0.93985139     0.08660
H416        H  0.17215203  0.25488961  0.97068045     0.05440
C417        C  0.61102768  0.52135548  0.06051402    -0.20360
C418        C  0.59177840  0.55233385  0.05750657    -0.06930
C419        C  0.61021428  0.59472093  0.07846425     0.13940
C420        C  0.64889999  0.60616543  0.10084541    -0.20420
C421        C  0.66881687  0.57575016  0.10336369    -0.06940
C422        C  0.64931011  0.53248860  0.08321021     0.13930
C423        C  0.67023717  0.49925294  0.08441897    -0.23770
H424        H  0.59687594  0.48895953  0.04434400     0.15210
H425        H  0.66353808  0.63893970  0.11668954     0.15240
C426        C  0.58823328  0.62709172  0.07810976    -0.23720
H427        H  0.65214717  0.46840185  0.06585278     0.05450
H428        H  0.66387802  0.48260643  0.10979100     0.08680
H429        H  0.71094809  0.52105721  0.07862608     0.08680
H430        H  0.54739532  0.60415516  0.08320520     0.08660
H431        H  0.59501245  0.64551830  0.05340639     0.08660
H432        H  0.60503123  0.65668958  0.09762970     0.05440
C433        C  0.63625555  0.93590879  0.25586581    -0.20360
C434        C  0.66376232  0.92085086  0.27412002    -0.06930
C435        C  0.71575943  0.94380501  0.26772350     0.13940
C436        C  0.73882572  0.98150474  0.24351838    -0.20420
C437        C  0.71164082  0.99789187  0.22634772    -0.06940
C438        C  0.65954618  0.97430132  0.23218234     0.13930
C439        C  0.62821717  0.98896597  0.21321700    -0.23770
H440        H  0.59648839  0.91829125  0.26082802     0.15210
H441        H  0.77878690  0.99991133  0.23907423     0.15240
C442        C  0.74775521  0.93101138  0.28771085    -0.23720
H443        H  0.58786525  0.96474731  0.21957986     0.05450
H444        H  0.63301761  0.98580826  0.18571711     0.08680
H445        H  0.63942858  0.02765258  0.21960937     0.08680
H446        H  0.73691059  0.89209121  0.28270586     0.08660
H447        H  0.74341274  0.93606612  0.31501184     0.08660
H448        H  0.78797823  0.95506532  0.28093837     0.05440
C449        C  0.56909347  0.61061461  0.44226746    -0.20360
C450        C  0.52160325  0.57005210  0.43464223    -0.06930
C451        C  0.49810051  0.57010094  0.40477073     0.13940
C452        C  0.52376665  0.60950575  0.38213447    -0.20420
C453        C  0.57186046  0.64926368  0.38921236    -0.06940
C454        C  0.59444830  0.65055849  0.41986712     0.13930
C455        C  0.64543528  0.69373789  0.42858472    -0.23770
H456        H  0.58652432  0.61071477  0.46556775     0.15210
H457        H  0.50676585  0.60888125  0.35850280     0.15240
C458        C  0.44646368  0.52805639  0.39648463    -0.23720
H459        H  0.65754925  0.68904463  0.45360361     0.05450
H460        H  0.64473049  0.72844623  0.42918508     0.08680
H461        H  0.67327989  0.69728958  0.40942001     0.08680
H462        H  0.41956592  0.52466533  0.41636510     0.08660
H463        H  0.44668656  0.49336971  0.39515314     0.08660
H464        H  0.43371144  0.53343553  0.37192459     0.05440
C465        C  0.72638477  0.72661334  0.27959884    -0.20360
C466        C  0.67456866  0.69686315  0.28485473    -0.06930
C467        C  0.64600227  0.65464617  0.26422179     0.13940
C468        C  0.67036163  0.64176401  0.24008558    -0.20420
C469        C  0.72228249  0.67064731  0.23541992    -0.06940
C470        C  0.75069036  0.71406080  0.25502339     0.13930
C471        C  0.80667710  0.74598391  0.25115483    -0.23770
H472        H  0.74796223  0.75916541  0.29529781     0.15210
H473        H  0.64871229  0.60895961  0.22460033     0.15240
C474        C  0.58973530  0.62386458  0.26682036    -0.23720
H475        H  0.82300970  0.77718273  0.26953537     0.05450
H476        H  0.81673668  0.76212480  0.22552418     0.08680
H477        H  0.82362452  0.72334057  0.25532246     0.08680
H478        H  0.57424882  0.64796579  0.26345747     0.08660
H479        H  0.57761012  0.60537618  0.29163430     0.08660
H480        H  0.57350646  0.59434938  0.24721787     0.05440
C481        C  0.30192204  0.24614057  0.08767623    -0.20360
C482        C  0.33692427  0.23460620  0.09809232    -0.06930
C483        C  0.38556501  0.26016993  0.08351122     0.13940
C484        C  0.39701985  0.29511024  0.05801667    -0.20420
C485        C  0.36150159  0.30579522  0.04707049    -0.06940
C486        C  0.31360882  0.28174066  0.06286358     0.13930
C487        C  0.27477889  0.29417579  0.05475412    -0.23770
H488        H  0.26500337  0.22727943  0.09926571     0.15210
H489        H  0.43387741  0.31402727  0.04636814     0.15240
C490        C  0.42524734  0.25012372  0.09394220    -0.23720
H491        H  0.24308785  0.27742046  0.07310266     0.05450
H492        H  0.25889443  0.27902448  0.02975094     0.08680
H493        H  0.29146358  0.33497899  0.05543052     0.08680
H494        H  0.41172232  0.21017372  0.09043936     0.08660
H495        H  0.43477963  0.26075343  0.12072262     0.08660
H496        H  0.46016745  0.27187593  0.07881581     0.05440
C497        C  0.28945262  0.35383467  0.44416746    -0.20360
C498        C  0.33898495  0.37691109  0.43202738    -0.06930
C499        C  0.34753300  0.37351990  0.39718001     0.13940
C500        C  0.30674077  0.34980816  0.37568627    -0.20420
C501        C  0.25715732  0.32613918  0.38764007    -0.06940
C502        C  0.24839893  0.32734410  0.42267228     0.13930
C503        C  0.19663874  0.29867886  0.43807379    -0.23770
H504        H  0.28283014  0.35529245  0.47092423     0.15210
H505        H  0.31400545  0.34937718  0.34891468     0.15240
C506        C  0.39832271  0.39405230  0.38078394    -0.23720
H507        H  0.19790963  0.29812911  0.46597654     0.05450
H508        H  0.17688049  0.25961507  0.42906918     0.08680
H509        H  0.17499976  0.31593468  0.43183496     0.08680
H510        H  0.43008855  0.41423734  0.39788727     0.08660
H511        H  0.40331832  0.42004489  0.36044082     0.08660
H512        H  0.40057869  0.36307535  0.36930980     0.05440
C513        C  0.19297114  0.16225661  0.24575556    -0.20360
C514        C  0.24209756  0.19001533  0.23285350    -0.06930
C515        C  0.27346248  0.23992221  0.24332847     0.13940
C516        C  0.25546131  0.26000779  0.26719295    -0.20420
C517        C  0.20715852  0.23164864  0.28108890    -0.06940
C518        C  0.17521126  0.18231397  0.26997337     0.13930
C519        C  0.12338857  0.15003723  0.28463733    -0.23770
H520        H  0.16884533  0.12409037  0.23764688     0.15210
H521        H  0.27962221  0.29801434  0.27564468     0.15240
C522        C  0.32555041  0.27267386  0.22912856    -0.23720
H523        H  0.10458821  0.11169355  0.27428804     0.05450
H524        H  0.09997379  0.16553678  0.27865422     0.08680
H525        H  0.12538802  0.14783925  0.31237330     0.08680
H526        H  0.32430022  0.27347694  0.20124234     0.08660
H527        H  0.34973148  0.25871026  0.23670837     0.08660
H528        H  0.34312748  0.31145650  0.23850481     0.05440
C529        C  0.98680970  0.22387490  0.25299308    -0.20360
C530        C  0.97295199  0.22676805  0.28636690    -0.06930
C531        C  0.92148880  0.20344546  0.29480665     0.13940
C532        C  0.88611333  0.18338036  0.26909813    -0.20420
C533        C  0.90022028  0.18221426  0.23552264    -0.06940
C534        C  0.95113847  0.20069298  0.22770785     0.13930
C535        C  0.96870601  0.19792466  0.19268249    -0.23770
H536        H  0.02606503  0.24115973  0.24638148     0.15210
H537        H  0.84689549  0.16707734  0.27553875     0.15240
C538        C  0.90229444  0.19718902  0.33058344    -0.23720
H539        H  0.01002260  0.21660488  0.19090757     0.05450
H540        H  0.95700762  0.21633375  0.17492918     0.08680
H541        H  0.95268713  0.15859018  0.18512408     0.08680
H542        H  0.88388152  0.21871529  0.33459264     0.08660
H543        H  0.93208577  0.20893620  0.34938553     0.08660
H544        H  0.87449376  0.15734907  0.33533539     0.05440
C545        C  0.05373191  0.63660123  0.95346391    -0.20360
C546        C  0.00484295  0.59697297  0.94820739    -0.06930
C547        C  0.97987766  0.59475652  0.91843540     0.13940
C548        C  0.00397105  0.63320807  0.89489635    -0.20420
C549        C  0.05247758  0.67324115  0.90045684    -0.06940
C550        C  0.07804142  0.67473168  0.92969365     0.13930
C551        C  0.13076134  0.71672422  0.93580059    -0.23770
H552        H  0.07258532  0.63793150  0.97636725     0.15210
H553        H  0.98487500  0.63224592  0.87220348     0.15240
C554        C  0.92771069  0.55205917  0.91170602    -0.23720
H555        H  0.14525325  0.71236869  0.95994375     0.05450
H556        H  0.13223092  0.75254267  0.93662661     0.08680
H557        H  0.15548406  0.71768812  0.91512366     0.08680
H558        H  0.90181415  0.55025285  0.93176552     0.08660
H559        H  0.92723132  0.51673828  0.91119589     0.08660
H560        H  0.91382902  0.55601496  0.88717522     0.05440
C561        C  0.84383702  0.57697308  0.06519864    -0.20360
C562        C  0.84692154  0.56722541  0.09905253    -0.06930
C563        C  0.86977570  0.54048023  0.10734781     0.13940
C564        C  0.89263222  0.52787088  0.08169338    -0.20420
C565        C  0.89093407  0.53905173  0.04778756    -0.06940
C566        C  0.86347683  0.56132091  0.03941019     0.13930
C567        C  0.85221978  0.56738187  0.00370053    -0.23770
H568        H  0.82439423  0.59559562  0.05870492     0.15210
H569        H  0.91292708  0.51019267  0.08826348     0.15240
C570        C  0.87160750  0.52653141  0.14315122    -0.23720
H571        H  0.81135339  0.55087580  0.00114394     0.05450
H572        H  0.86290667  0.54807016  0.98514288     0.08680
H573        H  0.87176081  0.60742039  0.99738333     0.08680
H574        H  0.83313020  0.50074235  0.15279817     0.08660
H575        H  0.88996329  0.56022094  0.15924593     0.08660
H576        H  0.89279110  0.50757319  0.14516901     0.05440
C577        C  0.03357507  0.34833829  0.95826332    -0.20360
C578        C  0.00152686  0.36282169  0.94612560    -0.06930
C579        C  0.99578288  0.36374737  0.91089144     0.13940
C580        C  0.02212249  0.34985656  0.88896694    -0.20420
C581        C  0.05243223  0.33346287  0.90140092    -0.06940
C582        C  0.05830149  0.33290241  0.93644050     0.13930
C583        C  0.09050722  0.31594555  0.95097539    -0.23770
H584        H  0.03829725  0.34792608  0.98519755     0.15210
H585        H  0.01761365  0.34999956  0.86198895     0.15240
C586        C  0.96000914  0.37640360  0.89620647    -0.23720
H587        H  0.09255629  0.31965777  0.97883101     0.05450
H588        H  0.12903390  0.33864749  0.94048326     0.08680
H589        H  0.07429183  0.27618097  0.94466631     0.08680
H590        H  0.97295244  0.41589599  0.90092824     0.08660
H591        H  0.92217460  0.35237379  0.90744066     0.08660
H592        H  0.95701689  0.37063009  0.86850427     0.05440
C593        C  0.92752600  0.31517026  0.07777178    -0.20360
C594        C  0.89850086  0.31222559  0.05047706    -0.06930
C595        C  0.84817555  0.27308737  0.04867723     0.13940
C596        C  0.82796340  0.23741415  0.07430458    -0.20420
C597        C  0.85756978  0.23913581  0.10086892    -0.06940
C598        C  0.90767724  0.27868151  0.10287047     0.13930
C599        C  0.94036459  0.28169608  0.13100820    -0.23770
H600        H  0.96626493  0.34523897  0.07881472     0.15210
H601        H  0.78926473  0.20739933  0.07319222     0.15240
C602        C  0.81631374  0.26852743  0.01938799    -0.23720
H603        H  0.97816297  0.31578618  0.12945963     0.05450
H604        H  0.94463343  0.24916959  0.12926082     0.08680
H605        H  0.92314155  0.28175922  0.15566542     0.08680
H606        H  0.83312326  0.26462332  0.99560976     0.08660
H607        H  0.81385661  0.30218092  0.01798108     0.08660
H608        H  0.77781969  0.23564295  0.02182836     0.05440
C609        C  0.29738243  0.93173922  0.93170681    -0.20360
C610        C  0.31308878  0.90352989  0.94826505    -0.06930
C611        C  0.29144535  0.85277113  0.93998149     0.13940
C612        C  0.25459737  0.83161361  0.91525096    -0.20420
C613        C  0.23760840  0.85940286  0.89961485    -0.06940
C614        C  0.25966834  0.91029256  0.90763710     0.13930
C615        C  0.24446979  0.94246699  0.89048590    -0.23770
H616        H  0.31431862  0.97070316  0.93808269     0.15210
H617        H  0.23775048  0.79270047  0.90889184     0.15240
C618        C  0.30501762  0.82015027  0.95828053    -0.23720
H619        H  0.26792065  0.98194004  0.89837669     0.05450
H620        H  0.20513143  0.92989475  0.89702624     0.08680
H621        H  0.24859901  0.94063332  0.86278362     0.08680
H622        H  0.29883067  0.82168343  0.98576580     0.08660
H623        H  0.34466559  0.83248107  0.95328828     0.08660
H624        H  0.28192125  0.78079650  0.95005287     0.05440
C625        C  0.34910291  0.03508935  0.04212419    -0.20360
C626        C  0.36401991  0.00305627  0.05359653    -0.06930
C627        C  0.36591264  0.99703090  0.08872960     0.13940
C628        C  0.35282432  0.02323064  0.11119353    -0.20420
C629        C  0.33632033  0.05367948  0.09946401    -0.06940
C630        C  0.33458645  0.05989006  0.06455526     0.13930
C631        C  0.31806340  0.09313721  0.05086501    -0.23770
H632        H  0.34802151  0.04008773  0.01527950     0.15210
H633        H  0.35382653  0.01864004  0.13808343     0.15240
C634        C  0.37865451  0.96112080  0.10287933    -0.23720
H635        H  0.32081028  0.09513583  0.02295466     0.05450
H636        H  0.34195410  0.13131974  0.06101100     0.08680
H637        H  0.27853722  0.07873282  0.05811905     0.08680
H638        H  0.41848957  0.97420916  0.09812800     0.08660
H639        H  0.35463972  0.92384026  0.09142955     0.08660
H640        H  0.37255848  0.95729595  0.13058061     0.05440
C641        C  0.53824472  0.90192287  0.91882579    -0.20360
C642        C  0.53673177  0.88896310  0.95264070    -0.06930
C643        C  0.54780273  0.85244467  0.96083319     0.13940
C644        C  0.56344477  0.83236676  0.93517618    -0.20420
C645        C  0.56676007  0.84684813  0.90156786    -0.06940
C646        C  0.55279225  0.88100227  0.89318395     0.13930
C647        C  0.55467453  0.89649634  0.85736992    -0.23770
H648        H  0.52944334  0.92969626  0.91258897     0.15210
H649        H  0.57291540  0.80504123  0.94130021     0.15240
C650        C  0.54154037  0.83335394  0.99625296    -0.23720
H651        H  0.54367035  0.92443287  0.85523983     0.05450
H652        H  0.52843406  0.86354043  0.84217645     0.08680
H653        H  0.59328241  0.91302447  0.84714104     0.08680
H654        H  0.50272189  0.81916665  0.00529365     0.08660
H655        H  0.56805201  0.86311994  0.01340493     0.08660
H656        H  0.54858375  0.80251905  0.99758587     0.05440
C657        C  0.62712237  0.02953823  0.10659771    -0.20360
C658        C  0.67699734  0.05569497  0.09541668    -0.06930
C659        C  0.68802162  0.05853792  0.06056381     0.13940
C660        C  0.64873225  0.03518172  0.03776017    -0.20420
C661        C  0.59882034  0.00751503  0.04889063    -0.06940
C662        C  0.58780680  0.00438772  0.08385911     0.13930
C663        C  0.53528627  0.97236524  0.09761892    -0.23770
H664        H  0.61902944  0.02718418  0.13339338     0.15210
H665        H  0.65702983  0.03744210  0.01099882     0.15240
C666        C  0.74098538  0.08635332  0.04714993    -0.23720
H667        H  0.53453489  0.97104122  0.12556039     0.05450
H668        H  0.51860155  0.93378494  0.08805938     0.08680
H669        H  0.51189787  0.98726688  0.09022196     0.08680
H670        H  0.76107417  0.06830448  0.05557024     0.08660
H671        H  0.76062520  0.12526441  0.05625787     0.08660
H672        H  0.74239183  0.08697217  0.01919427     0.05440
C673        C  0.88479356  0.54174401  0.55659295    -0.20360
C674        C  0.90943518  0.51868924  0.56835689    -0.06930
C675        C  0.91722888  0.51860412  0.60320634     0.13940
C676        C  0.90071666  0.54205926  0.62534307    -0.20420
C677        C  0.87816920  0.56737689  0.61366225    -0.06940
C678        C  0.86976117  0.56685408  0.57865616     0.13930
C679        C  0.84773844  0.59475370  0.56394215    -0.23770
H680        H  0.87894162  0.54163782  0.52977972     0.15210
H681        H  0.90652000  0.54157870  0.65209897     0.15240
C682        C  0.94233323  0.49328516  0.61731936    -0.23720
H683        H  0.84921240  0.59457808  0.53598695     0.05450
H684        H  0.86898931  0.63402760  0.57249504     0.08680
H685        H  0.80791250  0.57729156  0.57141041     0.08680
H686        H  0.98160108  0.51184052  0.60812296     0.08660
H687        H  0.92190336  0.45365508  0.60951299     0.08660
H688        H  0.94307085  0.49479339  0.64526515     0.05440
C689        C  0.99972771  0.39967778  0.39474725    -0.20360
C690        C  0.01284371  0.39825591  0.42809102    -0.06930
C691        C  0.04460205  0.38028999  0.43455912     0.13940
C692        C  0.05857399  0.36016501  0.40805143    -0.20420
C693        C  0.04370685  0.35958479  0.37482176    -0.06940
C694        C  0.01668797  0.38280847  0.36791208     0.13930
C695        C  0.00655575  0.39202685  0.33268351    -0.23770
H696        H  0.97709689  0.41532830  0.38943619     0.15210
H697        H  0.07935137  0.34265487  0.41369875     0.15240
C698        C  0.06128109  0.37910725  0.46954721    -0.23720
H699        H  0.02060724  0.43211797  0.32970258     0.05450
H700        H  0.96571744  0.37039597  0.32815422     0.08680
H701        H  0.02576365  0.38236097  0.31317234     0.08680
H702        H  0.02787391  0.35671237  0.48561818     0.08660
H703        H  0.08413327  0.41732301  0.47980760     0.08660
H704        H  0.08435788  0.36200519  0.47014083     0.05440
C705        C  0.33096456  0.96650365  0.57118820    -0.20360
C706        C  0.38128658  0.00099986  0.56339495    -0.06930
C707        C  0.40479476  0.04885987  0.57826545     0.13940
C708        C  0.37771875  0.06020436  0.60128218    -0.20420
C709        C  0.32771721  0.02527524  0.60961782    -0.06940
C710        C  0.30358155  0.97829293  0.59349569     0.13930
C711        C  0.24883999  0.94010792  0.59852001    -0.23770
H712        H  0.31248054  0.93018161  0.55929561     0.15210
H713        H  0.39621599  0.09607392  0.61377376     0.15240
C714        C  0.45895458  0.08737731  0.57137346    -0.23720
H715        H  0.23026017  0.92946685  0.57370143     0.05450
H716        H  0.22902774  0.95385342  0.61418987     0.08680
H717        H  0.24452203  0.90658040  0.61051107     0.08680
H718        H  0.46440522  0.09851626  0.54453960     0.08660
H719        H  0.48270281  0.07220767  0.57744353     0.08660
H720        H  0.47175837  0.12142775  0.58678553     0.05980
C721        C  0.59823798  0.93105690  0.39504880    -0.20360
C722        C  0.57381682  0.88126711  0.38462918    -0.06930
C723        C  0.52560620  0.84729748  0.39798171     0.13940
C724        C  0.50394602  0.86401676  0.42179761    -0.20420
C725        C  0.52782618  0.91419985  0.43145421    -0.06940
C726        C  0.57549996  0.94833452  0.41731604     0.13930
C727        C  0.60289516  0.00319773  0.42492186    -0.23770
H728        H  0.63500167  0.95712213  0.38473419     0.15210
H729        H  0.46710936  0.83793835  0.43198827     0.15240
C730        C  0.49527752  0.79420514  0.38588306    -0.23720
H731        H  0.64065362  0.02345893  0.41297769     0.05450
H732        H  0.60764975  0.00959976  0.45237279     0.08680
H733        H  0.58179635  0.01940495  0.41503577     0.08680
H734        H  0.51249174  0.77316939  0.39376915     0.08660
H735        H  0.49249040  0.79317834  0.35803279     0.08660
H736        H  0.45669021  0.77474488  0.39653092     0.05440
C737        C  0.55247113  0.99338200  0.60111670    -0.20360
C738        C  0.56674762  0.00307454  0.56711339    -0.06930
C739        C  0.61794769  0.02731680  0.55813235     0.13940
C740        C  0.65350485  0.04038681  0.58334131    -0.20420
C741        C  0.63917621  0.02996803  0.61733295    -0.06940
C742        C  0.58800260  0.00754271  0.62642636     0.13930
C743        C  0.56951949  0.99932579  0.66247098    -0.23770
H744        H  0.51325228  0.97555841  0.60807847     0.15210
H745        H  0.69261432  0.05731194  0.57638526     0.15240
C746        C  0.63498865  0.03651021  0.52191506    -0.23720
H747        H  0.54710076  0.01676055  0.66687229     0.05450
H748        H  0.60008884  0.01605261  0.68095497     0.08680
H749        H  0.54551443  0.95890975  0.66740627     0.08680
H750        H  0.62471655  0.06147204  0.51017993     0.08660
H751        H  0.61711384  0.00046092  0.50832992     0.08660
H752        H  0.67612744  0.05420390  0.51933205     0.05440
C753        C  0.64338641  0.94797376  0.72759641    -0.20360
C754        C  0.69203092  0.97127506  0.71387189    -0.06930
C755        C  0.72404289  0.95497502  0.72399217     0.13940
C756        C  0.70726311  0.91790702  0.74874473    -0.20420
C757        C  0.65847974  0.89464654  0.76228622    -0.06940
C758        C  0.62566690  0.90895209  0.75058689     0.13930
C759        C  0.57197006  0.88381305  0.76220206    -0.23770
H760        H  0.61854944  0.95998670  0.71982085     0.15210
H761        H  0.73195648  0.90588831  0.75685026     0.15240
C762        C  0.77447412  0.97387166  0.70756236    -0.23720
H763        H  0.55266331  0.90156871  0.75169335     0.05450
H764        H  0.57028783  0.88585311  0.78990060     0.08680
H765        H  0.55127524  0.84443595  0.75390349     0.08680
H766        H  0.80097506  0.01306292  0.71451349     0.08660
H767        H  0.77061625  0.97025934  0.67978537     0.08660
H768        H  0.79125053  0.95239007  0.71565292     0.05440
C769        C  0.92846033  0.28515318  0.60155034    -0.20360
C770        C  0.87998626  0.26315884  0.61523537    -0.06930
C771        C  0.84843996  0.27959576  0.60433574     0.13940
C772        C  0.86597868  0.31670965  0.57963785    -0.20420
C773        C  0.91492980  0.33952288  0.56655256    -0.06940
C774        C  0.94668466  0.32367110  0.57800978     0.13930
C775        C  0.99959115  0.34639469  0.56530260    -0.23770
H776        H  0.95271270  0.27277342  0.60998902     0.15210
H777        H  0.84187411  0.32938814  0.57142442     0.15240
C778        C  0.79749214  0.26056788  0.61998024    -0.23720
H779        H  0.01799679  0.32763619  0.57564637     0.05450
H780        H  0.02216802  0.38607020  0.57273361     0.08680
H781        H  0.99939620  0.34278672  0.53764028     0.08680
H782        H  0.80071007  0.26569700  0.64771790     0.08660
H783        H  0.77203346  0.22076935  0.61388738     0.08660
H784        H  0.78003069  0.28071451  0.61047796     0.05440
C785        C  0.98623328  0.27747541  0.76286101    -0.20360
C786        C  0.99895248  0.24218637  0.76992526    -0.06930
C787        C  0.97106102  0.19433071  0.75522360     0.13940
C788        C  0.93278169  0.18397878  0.73278355    -0.20420
C789        C  0.92055461  0.21956432  0.72528583    -0.06940
C790        C  0.94657637  0.26640553  0.74158303     0.13930
C791        C  0.93270141  0.30504446  0.73811846    -0.23770
H792        H  0.00661486  0.31373763  0.77478133     0.15210
H793        H  0.91304573  0.14814399  0.72028113     0.15240
C794        C  0.98237414  0.15448262  0.76197533    -0.23720
H795        H  0.92603805  0.31577874  0.76350536     0.05450
H796        H  0.89804977  0.29163520  0.72372255     0.08680
H797        H  0.96378702  0.33844481  0.72558259     0.08680
H798        H  0.97495511  0.14369637  0.78887729     0.08660
H799        H  0.02200192  0.16809189  0.75560462     0.08660
H800        H  0.95869371  0.12049529  0.74678692     0.05440
C801        C  0.35085031  0.91025229  0.39677276    -0.20360
C802        C  0.34026145  0.91090064  0.43105851    -0.06930
C803        C  0.29132730  0.89630829  0.44171553     0.13940
C804        C  0.25424656  0.88281053  0.41749685    -0.20420
C805        C  0.26506274  0.88319614  0.38300231    -0.06940
C806        C  0.31371279  0.89576298  0.37259624     0.13930
C807        C  0.32635069  0.89214075  0.33624241    -0.23770
H808        H  0.38831918  0.92059727  0.38894604     0.15210
H809        H  0.21690647  0.87270983  0.42542703     0.15240
C810        C  0.27868196  0.89647224  0.47848210    -0.23720
H811        H  0.36468086  0.89902034  0.33329637     0.05450
H812        H  0.32470893  0.92006897  0.32079886     0.08680
H813        H  0.29977496  0.85437046  0.32634446     0.08680
H814        H  0.30270071  0.93430791  0.48916824     0.08660
H815        H  0.28486001  0.87003890  0.49239397     0.08660
H816        H  0.23904743  0.88528702  0.48237326     0.05440
C817        C  0.26005916  0.95065437  0.26452770    -0.20360
C818        C  0.21250753  0.92855294  0.27973399    -0.06930
C819        C  0.17999659  0.94473263  0.27076585     0.13940
C820        C  0.19621988  0.98284209  0.24700856    -0.20420
C821        C  0.24450641  0.00613999  0.23281022    -0.06940
C822        C  0.27673557  0.98952428  0.24151985     0.13930
C823        C  0.32843023  0.01182383  0.22632294    -0.23770
H824        H  0.28474954  0.93796344  0.27127576     0.15210
H825        H  0.17165463  0.99571495  0.24031884     0.15240
C826        C  0.12937497  0.92406911  0.28733975    -0.23720
H827        H  0.34693025  0.99196741  0.23440629     0.05450
H828        H  0.35236776  0.05109191  0.23439797     0.08680
H829        H  0.32618486  0.00965241  0.19845597     0.08680
H830        H  0.13335099  0.92800513  0.31509943     0.08660
H831        H  0.10440832  0.88442947  0.28059215     0.08660
H832        H  0.11089966  0.94390318  0.27916439     0.05440
C833        C  0.04899456  0.61313314  0.38261613    -0.20360
C834        C  0.02828338  0.64293189  0.38499510    -0.06930
C835        C  0.99655910  0.63717472  0.41252206     0.13940
C836        C  0.98436030  0.60002891  0.43629596    -0.20420
C837        C  0.00425903  0.56960485  0.43354342    -0.06940
C838        C  0.03738331  0.57647169  0.40671469     0.13930
C839        C  0.05910176  0.54407744  0.40294847    -0.23770
H840        H  0.07356872  0.61803901  0.36153962     0.15210
H841        H  0.95927961  0.59469971  0.45714757     0.15240
C842        C  0.97630134  0.67072938  0.41712788    -0.23720
H843        H  0.08361899  0.55384589  0.38025595     0.05450
H844        H  0.02845373  0.50473726  0.40058677     0.08680
H845        H  0.08164940  0.54836126  0.42532710     0.08680
H846        H  0.95245129  0.66641990  0.39562895     0.08660
H847        H  0.00771772  0.70993116  0.41866785     0.08660
H848        H  0.95334084  0.66203553  0.44052294     0.05440
C849        C  0.98564921  0.69380797  0.25081725    -0.20360
C850        C  0.97310098  0.69373267  0.28496459    -0.06930
C851        C  0.92425190  0.68184325  0.29387505     0.13940
C852        C  0.88846752  0.66734934  0.26865923    -0.20420
C853        C  0.90065700  0.66596889  0.23471663    -0.06940
C854        C  0.95006189  0.68047112  0.22552681     0.13930
C855        C  0.96488877  0.68049657  0.18925543    -0.23770
H856        H  0.02325435  0.70350220  0.24399791     0.15210
H857        H  0.85073143  0.65733481  0.27541614     0.15240
C858        C  0.90996594  0.68574518  0.32968715    -0.23720
H859        H  0.00461367  0.69142544  0.18661217     0.05450
H860        H  0.95983815  0.70720162  0.17473631     0.08680
H861        H  0.94138988  0.64286056  0.17830316     0.08680
H862        H  0.93661190  0.72328314  0.33991147     0.08660
H863        H  0.91005513  0.65724010  0.34540489     0.08660
H864        H  0.87185850  0.67968672  0.33147848     0.05440
loop_ 
_geom_bond_atom_site_label_1 
_geom_bond_atom_site_label_2 
_geom_bond_distance 
_geom_bond_site_symmetry_2 
_ccdc_geom_bond_type 
C1            C2   1.397       .  A
C1            C6   1.405       .  A
C1          C850   1.485   1_455  S
C2            C3   1.395       .  A
C2            H7   1.084   1_455  S
C3            C4   1.400       .  A
C3          C834   1.477       .  S
C4            C5   1.416       .  A
C4            H8   1.077       .  S
C5            C6   1.420       .  A
C5           C12   1.516       .  S
C6            H9   1.078       .  S
C10          C11   1.404       .  A
C10          C15   1.394       .  A
C10         C805   1.485       .  S
C11          C12   1.420       .  A
C11          H16   1.077       .  S
C12          C13   1.417       .  A
C13          C14   1.402       .  A
C13          H17   1.077       .  S
C14          C15   1.396       .  A
C14         C818   1.484       .  S
C15          H18   1.084       .  S
C19          C20   1.399       .  A
C19          C24   1.404       .  A
C19         C770   1.490       .  S
C20          C21   1.399       .  A
C20          H25   1.084       .  S
C21          C22   1.405       .  A
C21         C789   1.488       .  S
C22          C23   1.414       .  A
C22          H26   1.078       .  S
C23          C24   1.417       .  A
C23          C30   1.511       .  S
C24          H27   1.079       .  S
C28          C29   1.407       .  A
C28          C33   1.401       .  A
C28         C754   1.494   1_545  S
C29          C30   1.419       .  A
C29          H34   1.074       .  S
C30          C31   1.414       .  A
C31          C32   1.401       .  A
C31          H35   1.080       .  S
C32          C33   1.397       .  A
C32         C741   1.484       .  S
C33          H36   1.084   1_545  S
O37         Cu45   2.024       .  S
O37          C47   1.281       .  A
O38         Cu45   2.010       .  S
O38          C48   1.279       .  A
O39         Cu45   2.004       .  S
O39          C49   1.276       .  A
O40         Cu45   2.009       .  S
O40          C50   1.277       .  A
O41         Cu46   2.013   1_545  S
O41          C50   1.278   1_545  A
O42         Cu46   2.013       .  S
O42          C49   1.278       .  A
O43         Cu46   2.004   1_545  S
O43          C48   1.276   1_545  A
O44         Cu46   1.997       .  S
O44          C47   1.275       .  A
Cu45        Cu46   2.372       .  S
C47         C725   1.489       .  S
C48         C706   1.481   1_565  S
C49         C802   1.471       .  S
C50         C738   1.478   1_565  S
O51         Cu59   2.015       .  S
O51          C61   1.279       .  A
O52         Cu59   2.010       .  S
O52          C62   1.277       .  A
O53         Cu59   2.004       .  S
O53          C63   1.276       .  A
O54         Cu59   2.021       .  S
O54          C64   1.280       .  A
O55         Cu60   2.012       .  S
O55          C64   1.277       .  A
O56         Cu60   2.011   1_455  S
O56          C63   1.277   1_455  A
O57         Cu60   2.010       .  S
O57          C62   1.278       .  A
O58         Cu60   2.006   1_455  S
O58          C61   1.277   1_455  A
Cu59        Cu60   2.373       .  S
C61         C690   1.481   1_655  S
C62         C674   1.478       .  S
C63         C837   1.469   1_655  S
C64         C773   1.488       .  S
C65          C66   1.396   1_556  A
C65          C70   1.403       .  A
C65         C642   1.482       .  S
C66          C67   1.398       .  A
C66          H71   1.083       .  S
C67          C68   1.400       .  A
C67         C661   1.482   1_565  S
C68          C69   1.412   1_554  A
C68          H72   1.077   1_565  S
C69          C70   1.417       .  A
C69          C76   1.508       .  S
C70          H73   1.079       .  S
C74          C75   1.403       .  A
C74          C79   1.399       .  A
C74         C626   1.488   1_565  S
C75          C76   1.417   1_554  A
C75          H80   1.074       .  S
C76          C77   1.412       .  A
C77          C78   1.400       .  A
C77          H81   1.079       .  S
C78          C79   1.396   1_556  A
C78         C610   1.479       .  S
C79          H82   1.084       .  S
C83          C84   1.398       .  A
C83          C88   1.404       .  A
C83         C578   1.487   1_655  S
C84          C85   1.392   1_556  A
C84          H89   1.085       .  S
C85          C86   1.399       .  A
C85         C594   1.475       .  S
C86          C87   1.418   1_554  A
C86          H90   1.077       .  S
C87          C88   1.420       .  A
C87          C94   1.518       .  S
C88          H91   1.073       .  S
C92          C93   1.406       .  A
C92          C97   1.398   1_554  A
C92         C565   1.489       .  S
C93          C94   1.420   1_554  A
C93          H98   1.077       .  S
C94          C95   1.418       .  A
C95          C96   1.399       .  A
C95          H99   1.076   1_655  S
C96          C97   1.392       .  A
C96         C546   1.475   1_655  S
C97         H100   1.084   1_556  S
C101        C102   1.401       .  A
C101        C106   1.406       .  A
C101        C693   1.491       .  S
C102        C103   1.399       .  A
C102        H107   1.081   1_455  S
C103        C104   1.403       .  A
C103        C530   1.489   1_455  S
C104        C105   1.411       .  A
C104        H108   1.081       .  S
C105        C106   1.412       .  A
C105        C112   1.502       .  S
C106        H109   1.080       .  S
C110        C111   1.399       .  A
C110        C115   1.396       .  A
C110        C517   1.481       .  S
C111        C112   1.412       .  A
C111        H116   1.081       .  S
C112        C113   1.416       .  A
C113        C114   1.406       .  A
C113        H117   1.074       .  S
C114        C115   1.402       .  A
C114        C501   1.494       .  S
C115        H118   1.084       .  S
O119       Cu127   2.004       .  S
O119        C129   1.277       .  A
O120       Cu127   2.002       .  S
O120        C130   1.277       .  A
O121       Cu127   2.011       .  S
O121        C131   1.278       .  A
O122       Cu127   2.008       .  S
O122        C132   1.279       .  A
O123       Cu128   2.005       .  S
O123        C132   1.276       .  A
O124       Cu128   1.999       .  S
O124        C131   1.276       .  A
O125       Cu128   2.008       .  S
O125        C130   1.277       .  A
O126       Cu128   2.011       .  S
O126        C129   1.278       .  A
Cu127      Cu128   2.372       .  S
C129        C514   1.481       .  S
C130        C629   1.471       .  S
C131        C821   1.479       .  S
C132        C482   1.482       .  S
C133        C134   1.395       .  A
C133        C138   1.402       .  A
C133        C466   1.479       .  S
C134        C135   1.393       .  A
C134        H139   1.084       .  S
C135        C136   1.400       .  A
C135        C453   1.473       .  S
C136        C137   1.417       .  A
C136        H140   1.079       .  S
C137        C138   1.418       .  A
C137        C144   1.510       .  S
C138        H141   1.078       .  S
C142        C143   1.404       .  A
C142        C147   1.401       .  A
C142        C722   1.491       .  S
C143        C144   1.416       .  A
C143        H148   1.077       .  S
C144        C145   1.415       .  A
C145        C146   1.401       .  A
C145        H149   1.077       .  S
C146        C147   1.397       .  A
C146        C434   1.485       .  S
C147        H150   1.084       .  S
O151       Cu159   2.003       .  S
O151        C161   1.277       .  A
O152       Cu159   2.008       .  S
O152        C162   1.277       .  A
O153       Cu159   2.011       .  S
O153        C163   1.278       .  A
O154       Cu159   2.012       .  S
O154        C164   1.278       .  A
O155       Cu160   2.010       .  S
O155        C164   1.278       .  A
O156       Cu160   2.011       .  S
O156        C163   1.277       .  A
O157       Cu160   2.007       .  S
O157        C162   1.278       .  A
O158       Cu160   2.007       .  S
O158        C161   1.277       .  A
Cu159      Cu160   2.373       .  S
C161        C469   1.474       .  S
C162        C562   1.477       .  S
C163        C853   1.474       .  S
C164        C421   1.478       .  S
O165       Cu173   2.007       .  S
O165        C175   1.278       .  A
O166       Cu173   2.019       .  S
O166        C176   1.280       .  A
O167       Cu173   2.010       .  S
O167        C177   1.276       .  A
O168       Cu173   1.999       .  S
O168        C178   1.276       .  A
O169       Cu174   2.020       .  S
O169        C178   1.279       .  A
O170       Cu174   2.017       .  S
O170        C177   1.278       .  A
O171       Cu174   1.998       .  S
O171        C176   1.275       .  A
O172       Cu174   1.996       .  S
O172        C175   1.276       .  A
Cu173      Cu174   2.374       .  S
C175        C658   1.472       .  S
C176        C533   1.482       .  S
C177        C597   1.473       .  S
C178        C437   1.477   1_545  S
C179        C180   1.404       .  A
C179        C184   1.406       .  A
C179        C405   1.500       .  S
C180        C181   1.396   1_556  A
C180        H185   1.083       .  S
C181        C182   1.403       .  A
C181        C485   1.490       .  S
C182        C183   1.416       .  A
C182        H186   1.077       .  S
C183        C184   1.418   1_554  A
C183        C190   1.513       .  S
C184        H187   1.076       .  S
C188        C189   1.402       .  A
C188        C193   1.397   1_556  A
C188        C386   1.484       .  S
C189        C190   1.415   1_556  A
C189        H194   1.079       .  S
C190        C191   1.418       .  A
C191        C192   1.405       .  A
C191        H195   1.078       .  S
C192        C193   1.398       .  A
C192        C418   1.485       .  S
C193        H196   1.084       .  S
C197        C198   1.400       .  A
C197        C202   1.406       .  A
C197        C677   1.494       .  S
C198        C199   1.396       .  A
C198        H203   1.084       .  S
C199        C200   1.402       .  A
C199        C370   1.487       .  S
C200        C201   1.418       .  A
C200        H204   1.076       .  S
C201        C202   1.420       .  A
C201        C208   1.518       .  S
C202        H205   1.075       .  S
C206        C207   1.404       .  A
C206        C211   1.398       .  A
C206        C354   1.489       .  S
C207        C208   1.419       .  A
C207        H212   1.073       .  S
C208        C209   1.417       .  A
C209        C210   1.403       .  A
C209        H213   1.077       .  S
C210        C211   1.396       .  A
C210        C341   1.486       .  S
C211        H214   1.084       .  S
O215       Cu223   2.010       .  S
O215        C225   1.277       .  A
O216       Cu223   2.007       .  S
O216        C226   1.277       .  A
O217       Cu223   2.012       .  S
O217        C227   1.278       .  A
O218       Cu223   2.008       .  S
O218        C228   1.277       .  A
O219       Cu224   2.020       .  S
O219        C228   1.279       .  A
O220       Cu224   2.004       .  S
O220        C227   1.277       .  A
O221       Cu224   2.008       .  S
O221        C226   1.277       .  A
O222       Cu224   2.017       .  S
O222        C225   1.278       .  A
Cu223      Cu224   2.374       .  S
C225        C645   1.474       .  S
C226        C357   1.473       .  S
C227        C389   1.478       .  S
C228        C757   1.487       .  S
C229        C230   1.398       .  A
C229        C234   1.405       .  A
C229        C709   1.484       .  S
C230        C231   1.396       .  A
C230        H235   1.084   1_545  S
C231        C232   1.400       .  A
C231        C322   1.479   1_545  S
C232        C233   1.413       .  A
C232        H236   1.080       .  S
C233        C234   1.415       .  A
C233        C240   1.505       .  S
C234        H237   1.080       .  S
C238        C239   1.403       .  A
C238        C243   1.398       .  A
C238        C306   1.485       .  S
C239        C240   1.415       .  A
C239        H244   1.080       .  S
C240        C241   1.413       .  A
C241        C242   1.402       .  A
C241        H245   1.080       .  S
C242        C243   1.397       .  A
C242        C290   1.479       .  S
C243        H246   1.084       .  S
O247       Cu255   2.012       .  S
O247        C257   1.277       .  A
O248       Cu255   2.016       .  S
O248        C258   1.279       .  A
O249       Cu255   2.004       .  S
O249        C259   1.276       .  A
O250       Cu255   1.997       .  S
O250        C260   1.276       .  A
O251       Cu256   2.028       .  S
O251        C260   1.280       .  A
O252       Cu256   2.012       .  S
O252        C259   1.279       .  A
O253       Cu256   2.010       .  S
O253        C258   1.277       .  A
O254       Cu256   2.008       .  S
O254        C257   1.277       .  A
Cu255      Cu256   2.372       .  S
C257        C309   1.473       .  S
C258        C581   1.476       .  S
C259        C786   1.481   1_455  S
C260        C402   1.489       .  S
O261       Cu269   2.000       .  S
O261        C271   1.277       .  A
O262       Cu269   2.004       .  S
O262        C272   1.276       .  A
O263       Cu269   2.012       .  S
O263        C273   1.278       .  A
O264       Cu269   2.004       .  S
O264        C274   1.277       .  A
O265       Cu270   2.003       .  S
O265        C274   1.277       .  A
O266       Cu270   2.002       .  S
O266        C273   1.275       .  A
O267       Cu270   2.013       .  S
O267        C272   1.279       .  A
O268       Cu270   2.005       .  S
O268        C271   1.277       .  A
Cu269      Cu270   2.375       .  S
C271        C613   1.474       .  S
C272        C373   1.481       .  S
C273        C549   1.467       .  S
C274        C325   1.474       .  S
O275       Cu283   2.020       .  S
O275        C285   1.279       .  A
O276       Cu283   2.009       .  S
O276        C286   1.277       .  A
O277       Cu283   2.001       .  S
O277        C287   1.276       .  A
O278       Cu283   2.003       .  S
O278        C288   1.277       .  A
O279       Cu284   2.012       .  S
O279        C288   1.278       .  A
O280       Cu284   2.020       .  S
O280        C287   1.280       .  A
O281       Cu284   2.001       .  S
O281        C286   1.276       .  A
O282       Cu284   2.002       .  S
O282        C285   1.275       .  A
Cu283      Cu284   2.375       .  S
C285        C450   1.471       .  S
C286        C293   1.468       .  S
C287        C498   1.483       .  S
C288        C338   1.479       .  S
C289        C290   1.405       .  A
C289        C294   1.404       .  A
C289        H296   1.084       .  S
C290        C291   1.414       .  A
C291        C292   1.402       .  A
C291        C298   1.508       .  S
C292        C293   1.401       .  A
C292        H297   1.085       .  S
C293        C294   1.410       .  A
C294        C295   1.507       .  S
C295        H299   1.111       .  S
C295        H300   1.110       .  S
C295        H301   1.111       .  S
C298        H302   1.110       .  S
C298        H303   1.108       .  S
C298        H304   1.111       .  S
C305        C306   1.404       .  A
C305        C310   1.403       .  A
C305        H312   1.084       .  S
C306        C307   1.417       .  A
C307        C308   1.405       .  A
C307        C314   1.508       .  S
C308        C309   1.401       .  A
C308        H313   1.084       .  S
C309        C310   1.412       .  A
C310        C311   1.507       .  S
C311        H315   1.111       .  S
C311        H316   1.109       .  S
C311        H317   1.109       .  S
C314        H318   1.110       .  S
C314        H319   1.108       .  S
C314        H320   1.111       .  S
C321        C322   1.403       .  A
C321        C326   1.403       .  A
C321        H328   1.084       .  S
C322        C323   1.415       .  A
C323        C324   1.402       .  A
C323        C330   1.508       .  S
C324        C325   1.402       .  A
C324        H329   1.084       .  S
C325        C326   1.414       .  A
C326        C327   1.508       .  S
C327        H331   1.111       .  S
C327        H332   1.109       .  S
C327        H333   1.110       .  S
C330        H334   1.111       .  S
C330        H335   1.109   1_565  S
C330        H336   1.111       .  S
C337        C338   1.405       .  A
C337        C342   1.405       .  A
C337        H344   1.084       .  S
C338        C339   1.413       .  A
C339        C340   1.402       .  A
C339        C346   1.508       .  S
C340        C341   1.405       .  A
C340        H345   1.084       .  S
C341        C342   1.415       .  A
C342        C343   1.508       .  S
C343        H347   1.111       .  S
C343        H348   1.110       .  S
C343        H349   1.108       .  S
C346        H350   1.109       .  S
C346        H351   1.110       .  S
C346        H352   1.111       .  S
C353        C354   1.407       .  A
C353        C358   1.401       .  A
C353        H360   1.084       .  S
C354        C355   1.418       .  A
C355        C356   1.407       .  A
C355        C362   1.508       .  S
C356        C357   1.402       .  A
C356        H361   1.084       .  S
C357        C358   1.410       .  A
C358        C359   1.508       .  S
C359        H363   1.111       .  S
C359        H364   1.111       .  S
C359        H365   1.109       .  S
C362        H366   1.107       .  S
C362        H367   1.110       .  S
C362        H368   1.111       .  S
C369        C370   1.404       .  A
C369        C374   1.406       .  A
C369        H376   1.084       .  S
C370        C371   1.419       .  A
C371        C372   1.400       .  A
C371        C378   1.509       .  S
C372        C373   1.401   1_655  A
C372        H377   1.085   1_655  S
C373        C374   1.417   1_455  A
C374        C375   1.508   1_655  S
C375        H379   1.111   1_455  S
C375        H380   1.110       .  S
C375        H381   1.110   1_455  S
C378        H382   1.110       .  S
C378        H383   1.107       .  S
C378        H384   1.111       .  S
C385        C386   1.403       .  A
C385        C390   1.404       .  A
C385        H392   1.084       .  S
C386        C387   1.415       .  A
C387        C388   1.404       .  A
C387        C394   1.508       .  S
C388        C389   1.403       .  A
C388        H393   1.084       .  S
C389        C390   1.415       .  A
C390        C391   1.507       .  S
C391        H395   1.111       .  S
C391        H396   1.109       .  S
C391        H397   1.110       .  S
C394        H398   1.110       .  S
C394        H399   1.108       .  S
C394        H400   1.111       .  S
C401        C402   1.407       .  A
C401        C406   1.411       .  A
C401        H408   1.084       .  S
C402        C403   1.416       .  A
C403        C404   1.396       .  A
C403        C410   1.507       .  S
C404        C405   1.404       .  A
C404        H409   1.080       .  S
C405        C406   1.421       .  A
C406        C407   1.508       .  S
C407        H411   1.111       .  S
C407        H412   1.110       .  S
C407        H413   1.107       .  S
C410        H414   1.110       .  S
C410        H415   1.100       .  S
C410        H416   1.111       .  S
C417        C418   1.404       .  A
C417        C422   1.405       .  A
C417        H424   1.084       .  S
C418        C419   1.414       .  A
C419        C420   1.404       .  A
C419        C426   1.508       .  S
C420        C421   1.403       .  A
C420        H425   1.084       .  S
C421        C422   1.414       .  A
C422        C423   1.507       .  S
C423        H427   1.111       .  S
C423        H428   1.109       .  S
C423        H429   1.111       .  S
C426        H430   1.110       .  S
C426        H431   1.108       .  S
C426        H432   1.111       .  S
C433        C434   1.403       .  A
C433        C438   1.404       .  A
C433        H440   1.084       .  S
C434        C435   1.417       .  A
C435        C436   1.405       .  A
C435        C442   1.508       .  S
C436        C437   1.401       .  A
C436        H441   1.084       .  S
C437        C438   1.415       .  A
C438        C439   1.508       .  S
C439        H443   1.111       .  S
C439        H444   1.110       .  S
C439        H445   1.109   1_565  S
C442        H446   1.108       .  S
C442        H447   1.110       .  S
C442        H448   1.111       .  S
C449        C450   1.401       .  A
C449        C454   1.405       .  A
C449        H456   1.084       .  S
C450        C451   1.411       .  A
C451        C452   1.401       .  A
C451        C458   1.502       .  S
C452        C453   1.399       .  A
C452        H457   1.084       .  S
C453        C454   1.411       .  A
C454        C455   1.505       .  S
C455        H459   1.111       .  S
C455        H460   1.111       .  S
C455        H461   1.110       .  S
C458        H462   1.110       .  S
C458        H463   1.102       .  S
C458        H464   1.111       .  S
C465        C466   1.403       .  A
C465        C470   1.405       .  A
C465        H472   1.084       .  S
C466        C467   1.415       .  A
C467        C468   1.400       .  A
C467        C474   1.509       .  S
C468        C469   1.401       .  A
C468        H473   1.085       .  S
C469        C470   1.415       .  A
C470        C471   1.507       .  S
C471        H475   1.111       .  S
C471        H476   1.110       .  S
C471        H477   1.111       .  S
C474        H478   1.110       .  S
C474        H479   1.108       .  S
C474        H480   1.111       .  S
C481        C482   1.400       .  A
C481        C486   1.400       .  A
C481        H488   1.084       .  S
C482        C483   1.418       .  A
C483        C484   1.407       .  A
C483        C490   1.507       .  S
C484        C485   1.404       .  A
C484        H489   1.084       .  S
C485        C486   1.419       .  A
C486        C487   1.508       .  S
C487        H491   1.111       .  S
C487        H492   1.105       .  S
C487        H493   1.110       .  S
C490        H494   1.110       .  S
C490        H495   1.110       .  S
C490        H496   1.111       .  S
C497        C498   1.407       .  A
C497        C502   1.409       .  A
C497        H504   1.084       .  S
C498        C499   1.419       .  A
C499        C500   1.397       .  A
C499        C506   1.510       .  S
C500        C501   1.405       .  A
C500        H505   1.085       .  S
C501        C502   1.418       .  A
C502        C503   1.508       .  S
C503        H507   1.111       .  S
C503        H508   1.110       .  S
C503        H509   1.106       .  S
C506        H510   1.101       .  S
C506        H511   1.111       .  S
C506        H512   1.111       .  S
C513        C514   1.407       .  A
C513        C518   1.405       .  A
C513        H520   1.084       .  S
C514        C515   1.415       .  A
C515        C516   1.401       .  A
C515        C522   1.508       .  S
C516        C517   1.403       .  A
C516        H521   1.085       .  S
C517        C518   1.412       .  A
C518        C519   1.507       .  S
C519        H523   1.111       .  S
C519        H524   1.109       .  S
C519        H525   1.110       .  S
C522        H526   1.111       .  S
C522        H527   1.109       .  S
C522        H528   1.111       .  S
C529        C530   1.405       .  A
C529        C534   1.402       .  A
C529        H536   1.084   1_655  S
C530        C531   1.417       .  A
C531        C532   1.403       .  A
C531        C538   1.508       .  S
C532        C533   1.404       .  A
C532        H537   1.085       .  S
C533        C534   1.416       .  A
C534        C535   1.506       .  S
C535        H539   1.111   1_655  S
C535        H540   1.104       .  S
C535        H541   1.110       .  S
C538        H542   1.110       .  S
C538        H543   1.108       .  S
C538        H544   1.111       .  S
C545        C546   1.400       .  A
C545        C550   1.403       .  A
C545        H552   1.084       .  S
C546        C547   1.413   1_455  A
C547        C548   1.403   1_655  A
C547        C554   1.506       .  S
C548        C549   1.399       .  A
C548        H553   1.084   1_455  S
C549        C550   1.412       .  A
C550        C551   1.506       .  S
C551        H555   1.111       .  S
C551        H556   1.110       .  S
C551        H557   1.110       .  S
C554        H558   1.109       .  S
C554        H559   1.110       .  S
C554        H560   1.111       .  S
C561        C562   1.401       .  A
C561        C566   1.400       .  A
C561        H568   1.085       .  S
C562        C563   1.414       .  A
C563        C564   1.406       .  A
C563        C570   1.507       .  S
C564        C565   1.407       .  A
C564        H569   1.084       .  S
C565        C566   1.418       .  A
C566        C567   1.508       .  S
C567        H571   1.111       .  S
C567        H572   1.106   1_554  S
C567        H573   1.110   1_554  S
C570        H574   1.110       .  S
C570        H575   1.108       .  S
C570        H576   1.111       .  S
C577        C578   1.403       .  A
C577        C582   1.398       .  A
C577        H584   1.085       .  S
C578        C579   1.418   1_455  A
C579        C580   1.408   1_655  A
C579        C586   1.507       .  S
C580        C581   1.403       .  A
C580        H585   1.084       .  S
C581        C582   1.410       .  A
C582        C583   1.500       .  S
C583        H587   1.111       .  S
C583        H588   1.110       .  S
C583        H589   1.109       .  S
C586        H590   1.107       .  S
C586        H591   1.110       .  S
C586        H592   1.111       .  S
C593        C594   1.402       .  A
C593        C598   1.404       .  A
C593        H600   1.084       .  S
C594        C595   1.410       .  A
C595        C596   1.404       .  A
C595        C602   1.506       .  S
C596        C597   1.403       .  A
C596        H601   1.083       .  S
C597        C598   1.410       .  A
C598        C599   1.501       .  S
C599        H603   1.111       .  S
C599        H604   1.107       .  S
C599        H605   1.111       .  S
C602        H606   1.110   1_554  S
C602        H607   1.110       .  S
C602        H608   1.111       .  S
C609        C610   1.403       .  A
C609        C614   1.401       .  A
C609        H616   1.084       .  S
C610        C611   1.414       .  A
C611        C612   1.403       .  A
C611        C618   1.508       .  S
C612        C613   1.403       .  A
C612        H617   1.083       .  S
C613        C614   1.414       .  A
C614        C615   1.508       .  S
C615        H619   1.111       .  S
C615        H620   1.109       .  S
C615        H621   1.110       .  S
C618        H622   1.110       .  S
C618        H623   1.108       .  S
C618        H624   1.111       .  S
C625        C626   1.406       .  A
C625        C630   1.400       .  A
C625        H632   1.084       .  S
C626        C627   1.418   1_545  A
C627        C628   1.406   1_565  A
C627        C634   1.508       .  S
C628        C629   1.401       .  A
C628        H633   1.084       .  S
C629        C630   1.410       .  A
C630        C631   1.508       .  S
C631        H635   1.111       .  S
C631        H636   1.110       .  S
C631        H637   1.109       .  S
C634        H638   1.107       .  S
C634        H639   1.110       .  S
C634        H640   1.111       .  S
C641        C642   1.403       .  A
C641        C646   1.402       .  A
C641        H648   1.084       .  S
C642        C643   1.415       .  A
C643        C644   1.405       .  A
C643        C650   1.508       .  S
C644        C645   1.402       .  A
C644        H649   1.084       .  S
C645        C646   1.410       .  A
C646        C647   1.502       .  S
C647        H651   1.111       .  S
C647        H652   1.110       .  S
C647        H653   1.110       .  S
C650        H654   1.110   1_556  S
C650        H655   1.107   1_556  S
C650        H656   1.111       .  S
C657        C658   1.401       .  A
C657        C662   1.403       .  A
C657        H664   1.084       .  S
C658        C659   1.414       .  A
C659        C660   1.400       .  A
C659        C666   1.508       .  S
C660        C661   1.403       .  A
C660        H665   1.084       .  S
C661        C662   1.418       .  A
C662        C663   1.509   1_545  S
C663        H667   1.111       .  S
C663        H668   1.110       .  S
C663        H669   1.108       .  S
C666        H670   1.109       .  S
C666        H671   1.108       .  S
C666        H672   1.111       .  S
C673        C674   1.403       .  A
C673        C678   1.408       .  A
C673        H680   1.084       .  S
C674        C675   1.411       .  A
C675        C676   1.401       .  A
C675        C682   1.508       .  S
C676        C677   1.407       .  A
C676        H681   1.084       .  S
C677        C678   1.419       .  A
C678        C679   1.508       .  S
C679        H683   1.111       .  S
C679        H684   1.110       .  S
C679        H685   1.107       .  S
C682        H686   1.109       .  S
C682        H687   1.111       .  S
C682        H688   1.111       .  S
C689        C690   1.404   1_655  A
C689        C694   1.403   1_655  A
C689        H696   1.084       .  S
C690        C691   1.413       .  A
C691        C692   1.402       .  A
C691        C698   1.503       .  S
C692        C693   1.406       .  A
C692        H697   1.084       .  S
C693        C694   1.417       .  A
C694        C695   1.508       .  S
C695        H699   1.111       .  S
C695        H700   1.110   1_455  S
C695        H701   1.108       .  S
C698        H702   1.104       .  S
C698        H703   1.109       .  S
C698        H704   1.111       .  S
C705        C706   1.403   1_565  A
C705        C710   1.402       .  A
C705        H712   1.085       .  S
C706        C707   1.417       .  A
C707        C708   1.404       .  A
C707        C714   1.508       .  S
C708        C709   1.404       .  A
C708        H713   1.084       .  S
C709        C710   1.416   1_545  A
C710        C711   1.508       .  S
C711        H715   1.111       .  S
C711        H716   1.108       .  S
C711        H717   1.110       .  S
C714        H718   1.109       .  S
C714        H719   1.111       .  S
C714        H720   1.111       .  S
C721        C722   1.403       .  A
C721        C726   1.402       .  A
C721        H728   1.084       .  S
C722        C723   1.418       .  A
C723        C724   1.407       .  A
C723        C730   1.509       .  S
C724        C725   1.406       .  A
C724        H729   1.084       .  S
C725        C726   1.419       .  A
C726        C727   1.508   1_565  S
C727        H731   1.111       .  S
C727        H732   1.105       .  S
C727        H733   1.110       .  S
C730        H734   1.107       .  S
C730        H735   1.110       .  S
C730        H736   1.111       .  S
C737        C738   1.402   1_565  A
C737        C742   1.402   1_565  A
C737        H744   1.085       .  S
C738        C739   1.413       .  A
C739        C740   1.404       .  A
C739        C746   1.504       .  S
C740        C741   1.403       .  A
C740        H745   1.084       .  S
C741        C742   1.418       .  A
C742        C743   1.509   1_545  S
C743        H747   1.111   1_565  S
C743        H748   1.107   1_565  S
C743        H749   1.110       .  S
C746        H750   1.109       .  S
C746        H751   1.109       .  S
C746        H752   1.111       .  S
C753        C754   1.406       .  A
C753        C758   1.400       .  A
C753        H760   1.084       .  S
C754        C755   1.417       .  A
C755        C756   1.409       .  A
C755        C762   1.508       .  S
C756        C757   1.407       .  A
C756        H761   1.084       .  S
C757        C758   1.415       .  A
C758        C759   1.506       .  S
C759        H763   1.111       .  S
C759        H764   1.103       .  S
C759        H765   1.110       .  S
C762        H766   1.106   1_565  S
C762        H767   1.110       .  S
C762        H768   1.111       .  S
C769        C770   1.403       .  A
C769        C774   1.403       .  A
C769        H776   1.084       .  S
C770        C771   1.417       .  A
C771        C772   1.407       .  A
C771        C778   1.508       .  S
C772        C773   1.405       .  A
C772        H777   1.084       .  S
C773        C774   1.417       .  A
C774        C775   1.504       .  S
C775        H779   1.111   1_655  S
C775        H780   1.109   1_655  S
C775        H781   1.103       .  S
C778        H782   1.110       .  S
C778        H783   1.108       .  S
C778        H784   1.111       .  S
C785        C786   1.403       .  A
C785        C790   1.402       .  A
C785        H792   1.085   1_655  S
C786        C787   1.416       .  A
C787        C788   1.404       .  A
C787        C794   1.508       .  S
C788        C789   1.405       .  A
C788        H793   1.084       .  S
C789        C790   1.417       .  A
C790        C791   1.508       .  S
C791        H795   1.111       .  S
C791        H796   1.107       .  S
C791        H797   1.110       .  S
C794        H798   1.109       .  S
C794        H799   1.109   1_655  S
C794        H800   1.111       .  S
C801        C802   1.399       .  A
C801        C806   1.402       .  A
C801        H808   1.084       .  S
C802        C803   1.412       .  A
C803        C804   1.406       .  A
C803        C810   1.507       .  S
C804        C805   1.404       .  A
C804        H809   1.084       .  S
C805        C806   1.418       .  A
C806        C807   1.509       .  S
C807        H811   1.111       .  S
C807        H812   1.107       .  S
C807        H813   1.110       .  S
C810        H814   1.111       .  S
C810        H815   1.110       .  S
C810        H816   1.111       .  S
C817        C818   1.403       .  A
C817        C822   1.400       .  A
C817        H824   1.084       .  S
C818        C819   1.416       .  A
C819        C820   1.405       .  A
C819        C826   1.508       .  S
C820        C821   1.404   1_565  A
C820        H825   1.084       .  S
C821        C822   1.415   1_545  A
C822        C823   1.508   1_565  S
C823        H827   1.111   1_545  S
C823        H828   1.109       .  S
C823        H829   1.110       .  S
C826        H830   1.110       .  S
C826        H831   1.108       .  S
C826        H832   1.111       .  S
C833        C834   1.401       .  A
C833        C838   1.404       .  A
C833        H840   1.084       .  S
C834        C835   1.413   1_455  A
C835        C836   1.402       .  A
C835        C842   1.506       .  S
C836        C837   1.399   1_655  A
C836        H841   1.084       .  S
C837        C838   1.412       .  A
C838        C839   1.506       .  S
C839        H843   1.111       .  S
C839        H844   1.109       .  S
C839        H845   1.110       .  S
C842        H846   1.107       .  S
C842        H847   1.110   1_655  S
C842        H848   1.111       .  S
C849        C850   1.405       .  A
C849        C854   1.406       .  A
C849        H856   1.084   1_655  S
C850        C851   1.415       .  A
C851        C852   1.403       .  A
C851        C858   1.507       .  S
C852        C853   1.401       .  A
C852        H857   1.084       .  S
C853        C854   1.411       .  A
C854        C855   1.506       .  S
C855        H859   1.111   1_655  S
C855        H860   1.110       .  S
C855        H861   1.108       .  S
C858        H862   1.111       .  S
C858        H863   1.106       .  S
C858        H864   1.111       .  S
