geometry optimzed in LAMMPS
_audit_creation_date              2020-11-30 
_audit_creation_method            'lammps2cif' 
_symmetry_space_group_name_H-M    'P1' 
_symmetry_Int_Tables_number       1 
_symmetry_cell_setting            triclinic 
loop_ 
_symmetry_equiv_pos_as_xyz 
  x,y,z 
_cell_length_a                    37.31434485476183 
_cell_length_b                    35.40630173327377 
_cell_length_c                    30.41478440375955 
_cell_angle_alpha                 90.10636451756754 
_cell_angle_beta                  90.23132057860924 
_cell_angle_gamma                 90.7092028023545 
loop_ 
_atom_site_label 
_atom_site_type_symbol 
_atom_site_fract_x 
_atom_site_fract_y 
_atom_site_fract_z 
_atom_site_charge 
O1          O  0.43776571  0.49432768  0.43377963    -0.78780
O2          O  0.07807461  0.04674708  0.46722637    -0.78810
O3          O  0.47033104  0.07960797  0.48020816    -0.78810
O4          O  0.02891496  0.42110338  0.47844304    -0.78760
O5          O  0.00884239  0.05035052  0.43738335    -0.78880
O6          O  0.49124991  0.44473301  0.43239505    -0.78800
O7          O  0.06279808  0.48734341  0.45426965    -0.78780
O8          O  0.41365009  0.03079027  0.48325700    -0.78820
C9          C  0.41258577  0.51527502  0.44541562     1.10910
C10         C  0.08436030  0.01583519  0.44805040     1.10790
C11         C  0.48752155  0.07740204  0.44407989     1.10930
C12         C  0.01191851  0.41853049  0.44263712     1.10810
O13         O  0.47039264  0.41860387  0.52082401    -0.78780
O14         O  0.02973031  0.07831862  0.52102018    -0.78860
O15         O  0.43889042  0.00334129  0.56782610    -0.78800
O16         O  0.07856026  0.45359324  0.53081066    -0.78780
O17         O  0.06403141  0.01271891  0.54429037    -0.78830
O18         O  0.41392075  0.46627137  0.51868680    -0.78790
O19         O  0.01016518  0.44877457  0.56255366    -0.78750
O20         O  0.49275204  0.05432615  0.56809069    -0.78820
Co21       Co  0.45554184  0.45824591  0.47676562     1.51530
Co22       Co  0.03379051  0.02896860  0.48877406     1.51690
Co23       Co  0.45610816  0.03975758  0.52447431     1.51570
Co24       Co  0.03390297  0.47056471  0.51055772     1.51470
O25         O  0.48855144  0.49933150  0.50033099    -1.40720
C26         C  0.98847956  0.42135752  0.55648958     1.10830
C27         C  0.51336743  0.08084821  0.55707472     1.10920
C28         C  0.41347418  0.48178301  0.55652207     1.10860
C29         C  0.08544167  0.98452718  0.55003952     1.10840
C30         C  0.49346422  0.21283400  0.33889171     0.04480
C31         C  0.49894380  0.24602951  0.36351267    -0.11670
C32         C  0.50397091  0.28079488  0.34237572     0.01980
C33         C  0.50329774  0.28254006  0.29641387    -0.10190
C34         C  0.49729162  0.24970927  0.27154552     0.04480
C35         C  0.49255078  0.21485747  0.29278039    -0.09610
H36         H  0.49936524  0.24483398  0.39914789     0.10070
H37         H  0.50680808  0.30949141  0.28004282     0.07600
H38         H  0.48823490  0.18943519  0.27349194     0.07450
C39         C  0.27993007  0.50629850  0.34569323     0.04480
C40         C  0.24745633  0.00379466  0.36870620    -0.11670
C41         C  0.21445466  0.50138388  0.34622957     0.01980
C42         C  0.21438001  0.49847359  0.30012514    -0.10190
C43         C  0.24674607  0.49965831  0.27689359     0.04480
C44         C  0.27919264  0.50452971  0.29959337    -0.09610
H45         H  0.24777073  0.00419336  0.40433517     0.10070
H46         H  0.18927327  0.49697335  0.28216665     0.07600
H47         H  0.30384651  0.50728437  0.28111130     0.07450
C48         C  0.28137455  0.49166229  0.65528159     0.04480
C49         C  0.24934900  0.99550894  0.63134717    -0.11670
C50         C  0.21616976  0.49841292  0.65283646     0.01980
C51         C  0.21563702  0.50092145  0.69892169    -0.10190
C52         C  0.24756846  0.49870792  0.72313930     0.04480
C53         C  0.28007250  0.49294003  0.70142644    -0.09610
H54         H  0.25009473  0.99565602  0.59573809     0.10070
H55         H  0.19037823  0.50283685  0.71616283     0.07600
H56         H  0.30423973  0.48914867  0.72068479     0.07450
C57         C  0.50298974  0.21854805  0.65641951     0.04480
C58         C  0.49741537  0.25341247  0.63587974    -0.11670
C59         C  0.49237585  0.28611044  0.66110052     0.01980
C60         C  0.49176503  0.28358177  0.70712571    -0.10190
C61         C  0.49674012  0.24861765  0.72782722     0.04480
C62         C  0.50295291  0.21631051  0.70240256    -0.09610
H63         H  0.49757912  0.25519373  0.60027586     0.10070
H64         H  0.48782761  0.30875944  0.72674178     0.07600
H65         H  0.50689920  0.18932157  0.71835229     0.07450
C66         C  0.24562491  0.46319221  0.16000340     0.04480
C67         C  0.24276417  0.46418747  0.20597005    -0.11670
C68         C  0.24694313  0.49852400  0.22856509     0.01980
C69         C  0.25334795  0.03186726  0.20509308    -0.10190
C70         C  0.25536975  0.03136327  0.15905360     0.04480
C71         C  0.25196393  0.49678394  0.13665676    -0.09610
H72         H  0.23837263  0.43824697  0.22412503     0.10070
H73         H  0.25666170  0.05830698  0.22275476     0.07600
H74         H  0.25359186  0.49603271  0.10107069     0.07450
O75         O  0.26133712  0.30085511  0.06104618    -0.78780
O76         O  0.24212100  0.19656502  0.06867240    -0.78810
O77         O  0.16334422  0.28149349  0.01817595    -0.78810
O78         O  0.31308548  0.23766268  0.04404114    -0.78760
O79         O  0.18809649  0.24547796  0.06762308    -0.78880
O80         O  0.32933065  0.29617266  0.02846793    -0.78800
O81         O  0.27822536  0.17162582  0.02230462    -0.78780
O82         O  0.22059484  0.32992714  0.02044930    -0.78820
C83         C  0.23977190  0.32781669  0.05526733     1.10910
C84         C  0.26243650  0.16995302  0.05888471     1.10790
C85         C  0.16273832  0.26627011  0.05605245     1.10930
C86         C  0.33523866  0.26585301  0.04899635     1.10810
O87         O  0.31215545  0.26151380  0.95251548    -0.78780
O88         O  0.16289878  0.21617977  0.98334726    -0.78860
O89         O  0.24068664  0.30341665  0.93174681    -0.78800
O90         O  0.25757237  0.19830908  0.93760842    -0.78780
O91         O  0.21942785  0.16834653  0.98133055    -0.78830
O92         O  0.27919039  0.32799032  0.97682318    -0.78790
O93         O  0.32681353  0.20279821  0.96741308    -0.78750
O94         O  0.18676436  0.25323751  0.93371240    -0.78820
Co95       Co  0.28404205  0.27876584  0.00893401     1.51530
Co96       Co  0.20530255  0.20887219  0.02479460     1.51690
Co97       Co  0.20504408  0.28987832  0.97640716     1.51570
Co98       Co  0.28275900  0.22043240  0.98876330     1.51470
O99         O  0.23787263  0.24957560  0.99995999    -1.40720
C100        C  0.33348075  0.23322689  0.94720705     1.10830
C101        C  0.16177956  0.23141709  0.94541800     1.10920
C102        C  0.26155479  0.33008202  0.94152281     1.10860
C103        C  0.23665050  0.17069142  0.94522960     1.10840
C104        C  0.03045746  0.25790229  0.15492478     0.04480
C105        C  0.02966289  0.25641449  0.20100790    -0.11670
C106        C  0.49716508  0.25179540  0.22326584     0.01980
C107        C  0.46481246  0.25068493  0.19960214    -0.10190
C108        C  0.46496050  0.25324604  0.15346354     0.04480
C109        C  0.49803716  0.25528778  0.13147629    -0.09610
H110        H  0.05431065  0.25899533  0.21978550     0.10070
H111        H  0.43968464  0.24925719  0.21725944     0.07600
H112        H  0.49849244  0.25525944  0.09585244     0.07450
C113        C  0.24899269  0.46649742  0.84103096     0.04480
C114        C  0.25079227  0.46615397  0.79513498    -0.11670
C115        C  0.24671117  0.49972793  0.77145534     0.01980
C116        C  0.24255488  0.03411579  0.79393166    -0.10190
C117        C  0.24154243  0.03485142  0.84018760     0.04480
C118        C  0.24339848  0.50052819  0.86321344    -0.09610
H119        H  0.25467767  0.43973301  0.77784642     0.10070
H120        H  0.24128823  0.06015784  0.77541087     0.07600
H121        H  0.24136084  0.50025342  0.89876714     0.07450
C122        C  0.02957077  0.23879267  0.84487975     0.04480
C123        C  0.49729647  0.24299892  0.86794629    -0.11670
C124        C  0.46435291  0.24600177  0.84558791     0.01980
C125        C  0.46434856  0.24862971  0.79948944    -0.10190
C126        C  0.49654255  0.24596764  0.77611576     0.04480
C127        C  0.02867040  0.23963652  0.79869230    -0.09610
H128        H  0.49761442  0.24347529  0.90356049     0.10070
H129        H  0.43932892  0.25112120  0.78160853     0.07600
H130        H  0.05296046  0.23553731  0.78000426     0.07450
C131        C  0.21627882  0.13373288  0.87887980     0.24950
C132        C  0.23793918  0.13743177  0.91647257    -0.23160
C133        C  0.26148249  0.10846503  0.92764006     0.19860
C134        C  0.26326445  0.07592390  0.90207932     0.24890
C135        C  0.24071543  0.07105203  0.86516255    -0.23100
C136        C  0.21745502  0.10059145  0.85342753     0.19790
F137        F  0.19511407  0.09696252  0.81830860    -0.13060
F138        F  0.19367149  0.16181321  0.86735062    -0.15420
F139        F  0.28759932  0.04935745  0.91327742    -0.15430
F140        F  0.28302461  0.11171284  0.96352046    -0.13060
C141        C  0.22650105  0.38374450  0.91383237     0.24950
C142        C  0.25957510  0.36529450  0.91642092    -0.23160
C143        C  0.28936866  0.38021151  0.89416898     0.19860
C144        C  0.28581244  0.41287789  0.86864037     0.24890
C145        C  0.25268960  0.43132169  0.86625920    -0.23100
C146        C  0.22320029  0.41677884  0.88937425     0.19790
F147        F  0.19111689  0.43443686  0.88783899    -0.13100
F148        F  0.19745972  0.36996120  0.93562016    -0.15420
F149        F  0.31470231  0.42688539  0.84680719    -0.15430
F150        F  0.32150497  0.36280546  0.89646067    -0.13060
C151        C  0.39692559  0.28722791  0.07008527     0.24950
C152        C  0.36733328  0.26308857  0.07764591    -0.23160
C153        C  0.36977185  0.23569451  0.11101650     0.19860
C154        C  0.40130104  0.23243083  0.13601869     0.24890
C155        C  0.43096009  0.25646325  0.12802541    -0.23100
C156        C  0.42810533  0.28416259  0.09510546     0.19790
F157        F  0.45548383  0.30884606  0.08728987    -0.13060
F158        F  0.39627605  0.31332445  0.03741977    -0.15420
F159        F  0.40311068  0.20511083  0.16717814    -0.15430
F160        F  0.34168952  0.21212392  0.11957346    -0.13060
C161        C  0.09467282  0.24041001  0.14355182     0.24950
C162        C  0.06508534  0.26223981  0.13132059    -0.23160
C163        C  0.06879788  0.28784434  0.09614946     0.19860
C164        C  0.10097225  0.29049740  0.07272232     0.24890
C165        C  0.13036940  0.26798063  0.08433610    -0.23100
C166        C  0.12696874  0.24354268  0.12082803     0.19790
F167        F  0.15434111  0.22110521  0.13365724    -0.13060
F168        F  0.09192903  0.21449205  0.17627659    -0.15420
F169        F  0.10299450  0.31465864  0.03818921    -0.15430
F170        F  0.04126129  0.31045703  0.08438834    -0.13060
C171        C  0.39450757  0.21144118  0.92656759     0.24950
C172        C  0.36577016  0.23605857  0.91903261    -0.23160
C173        C  0.36945448  0.26409554  0.88651724     0.19860
C174        C  0.40138729  0.26762290  0.86246763     0.24890
C175        C  0.43016375  0.24310781  0.87049085    -0.23100
C176        C  0.42604243  0.21473569  0.90245828     0.19790
F177        F  0.45249383  0.18954634  0.91012687    -0.13060
F178        F  0.39268267  0.18455431  0.95830605    -0.15420
F179        F  0.40443411  0.29556246  0.83215459    -0.15430
F180        F  0.34214967  0.28793129  0.87777239    -0.13060
C181        C  0.06641625  0.21083361  0.90656144     0.24950
C182        C  0.06415367  0.23396637  0.86891531    -0.23160
C183        C  0.09524220  0.25314860  0.85475409     0.19860
C184        C  0.12744278  0.24985412  0.87776812     0.24890
C185        C  0.12932000  0.22849556  0.91690185    -0.23100
C186        C  0.09847680  0.20849938  0.93056462     0.19790
F187        F  0.09889331  0.18742285  0.96780232    -0.13060
F188        F  0.03757379  0.19041320  0.92036475    -0.15420
F189        F  0.15640736  0.26923675  0.86237736    -0.15430
F190        F  0.09426194  0.27693247  0.81979967    -0.13060
C191        C  0.23462715  0.09640879  0.14265542     0.24950
C192        C  0.25897768  0.06734397  0.13464108    -0.23160
C193        C  0.28609527  0.07292662  0.10323753     0.19860
C194        C  0.28838951  0.10691165  0.07970498     0.24890
C195        C  0.26340478  0.13575867  0.08702592    -0.23100
C196        C  0.23681491  0.13019078  0.11934670     0.19790
F197        F  0.21170275  0.15675014  0.12735670    -0.13060
F198        F  0.20756195  0.09147850  0.17191008    -0.15420
F199        F  0.31495933  0.11147026  0.04975955    -0.15430
F200        F  0.31051064  0.04559280  0.09561594    -0.13060
C201        C  0.27534207  0.40966578  0.12252393     0.24950
C202        C  0.24366256  0.42688995  0.13626748    -0.23160
C203        C  0.21041355  0.41009740  0.12572018     0.19860
C204        C  0.20888969  0.37701195  0.10031552     0.24890
C205        C  0.24066032  0.35995551  0.08615087    -0.23100
C206        C  0.27390107  0.37625923  0.09804643     0.19790
F207        F  0.30500194  0.36107082  0.08374376    -0.13060
F208        F  0.30768271  0.42577150  0.13200583    -0.15420
F209        F  0.17651052  0.36172420  0.08937619    -0.15430
F210        F  0.17952147  0.42637874  0.13896195    -0.13060
C211        C  0.45758570  0.36464514  0.58916992     0.24950
C212        C  0.48718616  0.38977920  0.58848595    -0.23160
C213        C  0.01725459  0.38181144  0.61502881     0.19860
C214        C  0.01823435  0.34869840  0.64003227     0.24890
C215        C  0.48933106  0.32300337  0.63899429    -0.23100
C216        C  0.45878335  0.33144968  0.61403519     0.19790
F217        F  0.43041808  0.30707129  0.61305088    -0.13060
F218        F  0.42774304  0.37176772  0.56502174    -0.15420
F219        F  0.04829922  0.34059201  0.66330575    -0.15430
F220        F  0.04673041  0.40469173  0.61465159    -0.13060
C221        C  0.47944746  0.13577339  0.58355581     0.24950
C222        C  0.51216707  0.11663858  0.58142458    -0.23160
C223        C  0.04243138  0.13170090  0.60300752     0.19860
C224        C  0.03959354  0.16500985  0.62773774     0.24890
C225        C  0.50675766  0.18401951  0.62982039    -0.23100
C226        C  0.47688022  0.16944011  0.60712426     0.19790
F227        F  0.44497697  0.18743147  0.60868968    -0.13060
F228        F  0.44995253  0.12188797  0.56244225    -0.15420
F229        F  0.06877329  0.17880993  0.64951258    -0.15430
F230        F  0.07429010  0.11374269  0.60103516    -0.13060
C231        C  0.04254964  0.36503219  0.40424531     0.24950
C232        C  0.51103345  0.38335933  0.41685164    -0.23160
C233        C  0.47754163  0.36742710  0.40541038     0.19860
C234        C  0.47552548  0.33377799  0.38163536     0.24890
C235        C  0.50688780  0.31579174  0.36833792    -0.23100
C236        C  0.04046812  0.33152763  0.37958972     0.19790
F237        F  0.07104938  0.31445563  0.36664505    -0.13060
F238        F  0.07511595  0.38002490  0.41484192    -0.15420
F239        F  0.44290021  0.31863606  0.37151221    -0.15430
F240        F  0.44666665  0.38397095  0.41839406    -0.13060
C241        C  0.01311833  0.14667799  0.35378315     0.24950
C242        C  0.48916208  0.17617877  0.36171442    -0.23160
C243        C  0.46236224  0.17133450  0.39351687     0.19860
C244        C  0.46041194  0.13820322  0.41835559     0.24890
C245        C  0.48565402  0.10927966  0.41234301    -0.23100
C246        C  0.01147693  0.11355316  0.37883874     0.19790
F247        F  0.03645535  0.08668104  0.37171726    -0.13060
F248        F  0.03952274  0.15086418  0.32352104    -0.15420
F249        F  0.43431423  0.13506324  0.44917285    -0.15430
F250        F  0.43832408  0.19907945  0.40102675    -0.13060
C251        C  0.12133493  0.01583471  0.61079845     0.24950
C252        C  0.11794835  0.98793801  0.57796879    -0.23160
C253        C  0.14694003  0.46374631  0.57029748     0.19860
C254        C  0.17844177  0.46723359  0.59476193     0.24890
C255        C  0.18222868  0.49543835  0.62715751    -0.23100
C256        C  0.15323009  0.01962623  0.63512836     0.19790
F257        F  0.15596017  0.04741314  0.66581944    -0.13060
F258        F  0.09369117  0.03912575  0.61975188    -0.15420
F259        F  0.20509601  0.44230549  0.58714881    -0.15430
F260        F  0.14530830  0.43702076  0.53822640    -0.13060
C261        C  0.34690680  0.00627143  0.64567886     0.24950
C262        C  0.31603384  0.48624841  0.63207826    -0.23160
C263        C  0.31849333  0.46166018  0.59568631     0.19860
C264        C  0.35056823  0.45866491  0.57219727     0.24890
C265        C  0.38117503  0.47965824  0.58502798    -0.23100
C266        C  0.37910809  0.00260878  0.62299451     0.19790
F267        F  0.40780934  0.02318018  0.63738792    -0.13060
F268        F  0.34562439  0.03114467  0.67966599    -0.15420
F269        F  0.35123611  0.43590998  0.53623800    -0.15430
F270        F  0.28979058  0.44047317  0.58262915    -0.13060
C271        C  0.11923622  0.48432260  0.38750986     0.24950
C272        C  0.11646464  0.01265015  0.41984003    -0.23160
C273        C  0.14587465  0.03720813  0.42711381     0.19860
C274        C  0.17723175  0.03358607  0.40287019     0.24890
C275        C  0.18039271  0.50498101  0.37101274    -0.23100
C276        C  0.15092483  0.48055757  0.36324059     0.19790
F277        F  0.15309174  0.45242691  0.33301403    -0.13060
F278        F  0.09132775  0.46035153  0.37926025    -0.15420
F279        F  0.20448845  0.05858359  0.41036926    -0.15430
F280        F  0.14489596  0.06423461  0.45882929    -0.13060
C281        C  0.35056676  0.03925188  0.42862337     0.24950
C282        C  0.37998954  0.51680112  0.41713534    -0.23160
C283        C  0.37652478  0.49229667  0.38055565     0.19860
C284        C  0.34418639  0.48903206  0.35763835     0.24890
C285        C  0.31456790  0.51080275  0.36968515    -0.23100
C286        C  0.31831781  0.03648244  0.40495505     0.19790
F287        F  0.29077836  0.05909299  0.41652912    -0.13060
F288        F  0.35266367  0.06349366  0.46319873    -0.15420
F289        F  0.34146043  0.46304641  0.32484567    -0.15430
F290        F  0.40391203  0.46993177  0.36775184    -0.13060
O291        O  0.43776820  0.99432807  0.43378031    -0.78780
O292        O  0.07807243  0.54674669  0.46722679    -0.78810
O293        O  0.47032880  0.57960785  0.48020777    -0.78810
O294        O  0.02891743  0.92110361  0.47844321    -0.78760
O295        O  0.00884036  0.55035037  0.43738327    -0.78880
O296        O  0.49125240  0.94473344  0.43239542    -0.78800
O297        O  0.06280052  0.98734362  0.45426982    -0.78780
O298        O  0.41364776  0.53079022  0.48325616    -0.78820
C299        C  0.41258814  0.01527517  0.44541640     1.10910
C300        C  0.08435798  0.51583492  0.44805047     1.10790
C301        C  0.48751955  0.57740196  0.44407967     1.10930
C302        C  0.01192087  0.91853084  0.44263735     1.10810
O303        O  0.47039525  0.91860409  0.52082429    -0.78780
O304        O  0.02972792  0.57831831  0.52102026    -0.78860
O305        O  0.43888768  0.50334113  0.56782535    -0.78800
O306        O  0.07856289  0.95359351  0.53081074    -0.78780
O307        O  0.06402872  0.51271851  0.54429072    -0.78830
O308        O  0.41392345  0.96627150  0.51868758    -0.78790
O309        O  0.01016784  0.94877458  0.56255398    -0.78750
O310        O  0.49274929  0.55432595  0.56809042    -0.78820
Co311      Co  0.45554439  0.95824619  0.47676610     1.51530
Co312      Co  0.03378816  0.52896832  0.48877415     1.51690
Co313      Co  0.45610564  0.53975744  0.52447373     1.51570
Co314      Co  0.03390552  0.97056488  0.51055801     1.51470
O315        O  0.48855398  0.99933169  0.50033146    -1.40720
C316        C  0.98848206  0.92135766  0.55648984     1.10830
C317        C  0.51336488  0.58084791  0.55707466     1.10920
C318        C  0.41347702  0.98178299  0.55652296     1.10860
C319        C  0.08543891  0.48452672  0.55003989     1.10840
C320        C  0.49346400  0.71283430  0.33889228     0.04480
C321        C  0.49894402  0.74602968  0.36351336    -0.11670
C322        C  0.50397161  0.78079502  0.34237650     0.01980
C323        C  0.50329850  0.78254031  0.29641467    -0.10190
C324        C  0.49729192  0.74970967  0.27154622     0.04480
C325        C  0.49255059  0.71485789  0.29278098    -0.09610
H326        H  0.49936541  0.74483406  0.39914857     0.10070
H327        H  0.50680917  0.80949165  0.28004370     0.07600
H328        H  0.48823434  0.68943573  0.27349244     0.07450
C329        C  0.27993259  0.00629843  0.34569375     0.04480
C330        C  0.24745383  0.50379463  0.36870573    -0.11670
C331        C  0.21445719  0.00138388  0.34622999     0.01980
C332        C  0.21438259  0.99847350  0.30012558    -0.10190
C333        C  0.24674866  0.99965813  0.27689405     0.04480
C334        C  0.27919523  0.00452949  0.29959389    -0.09610
H335        H  0.24776826  0.50419322  0.40433469     0.10070
H336        H  0.18927587  0.99697332  0.28216706     0.07600
H337        H  0.30384914  0.00728404  0.28111187     0.07450
C338        C  0.28137737  0.99166236  0.65528217     0.04480
C339        C  0.24934580  0.49550851  0.63134731    -0.11670
C340        C  0.21617270  0.99841382  0.65283559     0.01980
C341        C  0.21563934  0.00092240  0.69892075    -0.10190
C342        C  0.24757036  0.99870856  0.72313909     0.04480
C343        C  0.28007469  0.99294024  0.70142702    -0.09610
H344        H  0.25009104  0.49565568  0.59573821     0.10070
H345        H  0.19038031  0.00283797  0.71616135     0.07600
H346        H  0.30424157  0.98914858  0.72068592     0.07450
C347        C  0.50298888  0.71854778  0.65641977     0.04480
C348        C  0.49741523  0.75341231  0.63587994    -0.11670
C349        C  0.49237646  0.78611045  0.66110069     0.01980
C350        C  0.49176567  0.78358186  0.70712588    -0.10190
C351        C  0.49674001  0.74861764  0.72782743     0.04480
C352        C  0.50295204  0.71631029  0.70240282    -0.09610
H353        H  0.49757897  0.75519352  0.60027606     0.10070
H354        H  0.48782884  0.80875965  0.72674192     0.07600
H355        H  0.50689783  0.68932129  0.71835259     0.07450
C356        C  0.24562613  0.96319256  0.16000357     0.04480
C357        C  0.24276613  0.96418759  0.20597031    -0.11670
C358        C  0.24694565  0.99852397  0.22856554     0.01980
C359        C  0.25334552  0.53186721  0.20509251    -0.10190
C360        C  0.25536806  0.53136295  0.15905308     0.04480
C361        C  0.25196500  0.99678439  0.13665706    -0.09610
H362        H  0.23837460  0.93824702  0.22412518     0.10070
H363        H  0.25665888  0.55830705  0.22275404     0.07600
H364        H  0.25359235  0.99603336  0.10107095     0.07450
O365        O  0.26133662  0.80085531  0.06104649    -0.78780
O366        O  0.24212112  0.69656482  0.06867209    -0.78810
O367        O  0.16334399  0.78149276  0.01817591    -0.78810
O368        O  0.31308507  0.73766374  0.04404303    -0.78760
O369        O  0.18809597  0.74547670  0.06762281    -0.78880
O370        O  0.32933033  0.79617345  0.02846876    -0.78800
O371        O  0.27822612  0.67162601  0.02230499    -0.78780
O372        O  0.22059427  0.82992703  0.02044952    -0.78820
C373        C  0.23977141  0.82781686  0.05526752     1.10910
C374        C  0.26243661  0.66995282  0.05888459     1.10790
C375        C  0.16273794  0.76626909  0.05605226     1.10930
C376        C  0.33523823  0.76585411  0.04899789     1.10810
O377        O  0.31215574  0.76151450  0.95251617    -0.78780
O378        O  0.16289913  0.71617894  0.98334668    -0.78860
O379        O  0.24068653  0.80341628  0.93174719    -0.78800
O380        O  0.25757440  0.69830982  0.93760893    -0.78780
O381        O  0.21942902  0.66834661  0.98132941    -0.78830
O382        O  0.27918987  0.82799073  0.97682344    -0.78790
O383        O  0.32681487  0.70279959  0.96741528    -0.78750
O384        O  0.18676458  0.75323715  0.93371230    -0.78820
Co385      Co  0.28404192  0.77876630  0.00893442     1.51530
Co386      Co  0.20530284  0.70887161  0.02479405     1.51690
Co387      Co  0.20504390  0.78987798  0.97640731     1.51570
Co388      Co  0.28275976  0.72043308  0.98876456     1.51470
O389        O  0.23787269  0.74957558  0.99996023    -1.40720
C390        C  0.33348160  0.73322798  0.94720848     1.10830
C391        C  0.16177988  0.73141650  0.94541761     1.10920
C392        C  0.26155418  0.83008207  0.94152309     1.10860
C393        C  0.23665252  0.67069198  0.94522908     1.10840
C394        C  0.03045728  0.75790257  0.15492525     0.04480
C395        C  0.02966298  0.75641468  0.20100838    -0.11670
C396        C  0.49716519  0.75179594  0.22326657     0.01980
C397        C  0.46481245  0.75068588  0.19960316    -0.10190
C398        C  0.46496025  0.75324706  0.15346458     0.04480
C399        C  0.49803679  0.75528850  0.13147702    -0.09610
H400        H  0.05431087  0.75899518  0.21978577     0.10070
H401        H  0.43968471  0.74925835  0.21726066     0.07600
H402        H  0.49849186  0.75526022  0.09585318     0.07450
C403        C  0.24898922  0.96649651  0.84103014     0.04480
C404        C  0.25079165  0.96615379  0.79513436    -0.11670
C405        C  0.24671191  0.99972810  0.77145509     0.01980
C406        C  0.24255494  0.53411588  0.79393158    -0.10190
C407        C  0.24154553  0.53485222  0.84018757     0.04480
C408        C  0.24339309  0.00052682  0.86321273    -0.09610
H409        H  0.25467814  0.93973311  0.77784563     0.10070
H410        H  0.24128662  0.56015770  0.77541050     0.07600
H411        H  0.24135273  0.00025122  0.89876616     0.07450
C412        C  0.02957107  0.73879277  0.84487971     0.04480
C413        C  0.49729697  0.74299930  0.86794648    -0.11670
C414        C  0.46435333  0.74600233  0.84558834     0.01980
C415        C  0.46434876  0.74863013  0.79948986    -0.10190
C416        C  0.49654262  0.74596775  0.77611596     0.04480
C417        C  0.02867049  0.73963652  0.79869227    -0.09610
H418        H  0.49761509  0.74347574  0.90356069     0.10070
H419        H  0.43932905  0.75112176  0.78160913     0.07600
H420        H  0.05296043  0.73553709  0.78000407     0.07450
C421        C  0.21627728  0.63373104  0.87888283     0.24950
C422        C  0.23794207  0.63743280  0.91647143    -0.23160
C423        C  0.26149019  0.60846913  0.92763452     0.19860
C424        C  0.26327192  0.57592773  0.90207407     0.24890
C425        C  0.24071880  0.57105313  0.86516161    -0.23100
C426        C  0.21745408  0.60058977  0.85343038     0.19790
F427        F  0.19510953  0.59695803  0.81831524    -0.13060
F428        F  0.19366537  0.66180849  0.86735778    -0.15420
F429        F  0.28761008  0.54936346  0.91326835    -0.15430
F430        F  0.28303668  0.61171992  0.96351071    -0.13060
C431        C  0.22649904  0.88374319  0.91383172     0.24950
C432        C  0.25957368  0.86529438  0.91642105    -0.23160
C433        C  0.28936696  0.88021212  0.89416926     0.19860
C434        C  0.28580996  0.91287809  0.86864016     0.24890
C435        C  0.25268656  0.93132074  0.86625822    -0.23100
C436        C  0.22319745  0.91677713  0.88937304     0.19790
F437        F  0.19111351  0.93443404  0.88783710    -0.13100
F438        F  0.19745791  0.86995910  0.93561928    -0.15420
F439        F  0.31469967  0.92688642  0.84680737    -0.15430
F440        F  0.32150379  0.86280716  0.89646157    -0.13060
C441        C  0.39692505  0.78722935  0.07008694     0.24950
C442        C  0.36733275  0.76308999  0.07764765    -0.23160
C443        C  0.36977136  0.73569597  0.11101828     0.19860
C444        C  0.40130063  0.73243221  0.13602028     0.24890
C445        C  0.43095972  0.75646452  0.12802679    -0.23100
C446        C  0.42810488  0.78416392  0.09510694     0.19790
F447        F  0.45548344  0.80884729  0.08729120    -0.13060
F448        F  0.39627545  0.81332592  0.03742147    -0.15420
F449        F  0.40311033  0.70511218  0.16717968    -0.15430
F450        F  0.34168903  0.71212541  0.11957536    -0.13060
C451        C  0.09467236  0.74040945  0.14355176     0.24950
C452        C  0.06508508  0.76223964  0.13132077    -0.23160
C453        C  0.06879775  0.78784413  0.09614962     0.19860
C454        C  0.10097206  0.79049684  0.07272231     0.24890
C455        C  0.13036904  0.76797976  0.08433593    -0.23100
C456        C  0.12696823  0.74354177  0.12082781     0.19790
F457        F  0.15434041  0.72110399  0.13365685    -0.13060
F458        F  0.09192844  0.71449147  0.17627651    -0.15420
F459        F  0.10299442  0.81465810  0.03818922    -0.15430
F460        F  0.04126135  0.81045715  0.08438868    -0.13060
C461        C  0.39450831  0.71144214  0.92656860     0.24950
C462        C  0.36577095  0.73605968  0.91903391    -0.23160
C463        C  0.36945525  0.76409668  0.88651856     0.19860
C464        C  0.40138793  0.76762386  0.86246864     0.24890
C465        C  0.43016430  0.74310858  0.87049157    -0.23100
C466        C  0.42604302  0.71473648  0.90245901     0.19790
F467        F  0.45249432  0.68954695  0.91012732    -0.13060
F468        F  0.39268349  0.68455520  0.95830700    -0.15420
F469        F  0.40443473  0.79556342  0.83215560    -0.15430
F470        F  0.34215056  0.78793267  0.87777404    -0.13060
C471        C  0.06641655  0.71083335  0.90656112     0.24950
C472        C  0.06415402  0.73396617  0.86891504    -0.23160
C473        C  0.09524264  0.75314816  0.85475368     0.19860
C474        C  0.12744324  0.74985351  0.87776763     0.24890
C475        C  0.12932038  0.72849497  0.91690138    -0.23100
C476        C  0.09847712  0.70849892  0.93056420     0.19790
F477        F  0.09889357  0.68742239  0.96780190    -0.13060
F478        F  0.03757400  0.69041312  0.92036451    -0.15420
F479        F  0.15640790  0.76923594  0.86237681    -0.15430
F480        F  0.09426244  0.77693201  0.81979923    -0.13060
C481        C  0.23462527  0.59640811  0.14265373     0.24950
C482        C  0.25897620  0.56734350  0.13464035    -0.23160
C483        C  0.28609442  0.57292620  0.10323762     0.19860
C484        C  0.28838899  0.60691121  0.07970504     0.24890
C485        C  0.26340410  0.63575818  0.08702533    -0.23100
C486        C  0.23681342  0.63019011  0.11934509     0.19790
F487        F  0.21170090  0.65674929  0.12735414    -0.13060
F488        F  0.20755939  0.59147765  0.17190739    -0.15420
F489        F  0.31495929  0.61146985  0.04976026    -0.15430
F490        F  0.31051009  0.54559251  0.09561691    -0.13060
C491        C  0.27534248  0.90966523  0.12252487     0.24950
C492        C  0.24366320  0.92689041  0.13626743    -0.23160
C493        C  0.21041393  0.91009890  0.12571909     0.19860
C494        C  0.20888965  0.87701342  0.10031447     0.24890
C495        C  0.24066007  0.85995593  0.08615082    -0.23100
C496        C  0.27390103  0.87625869  0.09804736     0.19790
F497        F  0.30500179  0.86106934  0.08374569    -0.13060
F498        F  0.30768337  0.92576995  0.13200774    -0.15420
F499        F  0.17651028  0.86172660  0.08937432    -0.15430
F500        F  0.17952206  0.92638119  0.13895997    -0.13060
C501        C  0.45758751  0.86464583  0.58917027     0.24950
C502        C  0.48718836  0.88977937  0.58848626    -0.23160
C503        C  0.01725638  0.88181127  0.61502935     0.19860
C504        C  0.01823566  0.84869818  0.64003276     0.24890
C505        C  0.48933230  0.82300343  0.63899444    -0.23100
C506        C  0.45878469  0.83145031  0.61403546     0.19790
F507        F  0.43041903  0.80707242  0.61305119    -0.13060
F508        F  0.42774491  0.87176896  0.56502222    -0.15420
F509        F  0.04830028  0.84059144  0.66330656    -0.15430
F510        F  0.04673239  0.90469129  0.61465246    -0.13060
C511        C  0.47944534  0.63577315  0.58355655     0.24950
C512        C  0.51216484  0.61663817  0.58142479    -0.23160
C513        C  0.04242939  0.63170033  0.60300734     0.19860
C514        C  0.03959195  0.66500929  0.62773761     0.24890
C515        C  0.50675627  0.68401913  0.62982070    -0.23100
C516        C  0.47687851  0.66943989  0.60712506     0.19790
F517        F  0.44497539  0.68743147  0.60869094    -0.13060
F518        F  0.44995015  0.62188793  0.56244336    -0.15420
F519        F  0.06877196  0.67880921  0.64951204    -0.15430
F520        F  0.07428801  0.61374196  0.60103450    -0.13060
C521        C  0.04255140  0.86503174  0.40424632     0.24950
C522        C  0.51103540  0.88335956  0.41685207    -0.23160
C523        C  0.47754339  0.86742768  0.40541100     0.19860
C524        C  0.47552683  0.83377850  0.38163616     0.24890
C525        C  0.50688893  0.81579182  0.36833875    -0.23100
C526        C  0.04046952  0.83152707  0.37959097     0.19790
F527        F  0.07105059  0.81445436  0.36664693    -0.13060
F528        F  0.07511787  0.88002383  0.41484336    -0.15420
F529        F  0.44290139  0.81863695  0.37151312    -0.15430
F530        F  0.44666861  0.88397197  0.41839465    -0.13060
C531        C  0.01311736  0.64667793  0.35378341     0.24950
C532        C  0.48916139  0.67617905  0.36171482    -0.23160
C533        C  0.46236146  0.67133501  0.39351719     0.19860
C534        C  0.46041069  0.63820363  0.41835566     0.24890
C535        C  0.48565241  0.60927973  0.41234294    -0.23100
C536        C  0.01147545  0.61355300  0.37883876     0.19790
F537        F  0.03645346  0.58668049  0.37171707    -0.13060
F538        F  0.03952182  0.65086384  0.32352132    -0.15420
F539        F  0.43431291  0.63506388  0.44917287    -0.15430
F540        F  0.43832365  0.69908028  0.40102721    -0.13060
C541        C  0.12133180  0.51583369  0.61079964     0.24950
C542        C  0.11794535  0.48793723  0.57796967    -0.23160
C543        C  0.14694310  0.96374723  0.57029641     0.19860
C544        C  0.17844495  0.96723470  0.59476062     0.24890
C545        C  0.18223187  0.99543953  0.62715612    -0.23100
C546        C  0.15322687  0.51962500  0.63512983     0.19790
F547        F  0.15595689  0.54741173  0.66582112    -0.13060
F548        F  0.09368806  0.53912477  0.61975299    -0.15420
F549        F  0.20509920  0.94230662  0.58714750    -0.15430
F550        F  0.14531126  0.93702154  0.53822548    -0.13060
C551        C  0.34690371  0.50627214  0.64567740     0.24950
C552        C  0.31603687  0.98624794  0.63207947    -0.23160
C553        C  0.31849640  0.96165967  0.59568756     0.19860
C554        C  0.35057129  0.95866442  0.57219852     0.24890
C555        C  0.38117806  0.97965782  0.58502918    -0.23100
C556        C  0.37910499  0.50260945  0.62299309     0.19790
F557        F  0.40780619  0.52318098  0.63738639    -0.13060
F558        F  0.34562127  0.53114555  0.67966437    -0.15420
F559        F  0.35123918  0.93590953  0.53623921    -0.15430
F560        F  0.28979364  0.94047270  0.58263034    -0.13060
C561        C  0.11923865  0.98432273  0.38750999     0.24950
C562        C  0.11646226  0.51264998  0.41983995    -0.23160
C563        C  0.14587225  0.53720802  0.42711361     0.19860
C564        C  0.17722928  0.53358602  0.40286985     0.24890
C565        C  0.18039521  0.00498105  0.37101309    -0.23100
C566        C  0.15092731  0.98055765  0.36324085     0.19790
F567        F  0.15309426  0.95242696  0.33301432    -0.13060
F568        F  0.09133018  0.96035168  0.37926033    -0.15420
F569        F  0.20448597  0.55858359  0.41036882    -0.15430
F570        F  0.14489359  0.56423452  0.45882906    -0.13060
C571        C  0.35056430  0.53925163  0.42862294     0.24950
C572        C  0.37999189  0.01680107  0.41713616    -0.23160
C573        C  0.37652706  0.99229623  0.38055682     0.19860
C574        C  0.34418872  0.98903166  0.35763939     0.24890
C575        C  0.31457036  0.01080269  0.36968577    -0.23100
C576        C  0.31831530  0.53648221  0.40495472     0.19790
F577        F  0.29077577  0.55909249  0.41652919    -0.13060
F578        F  0.35266111  0.56349305  0.46319865    -0.15420
F579        F  0.34146267  0.96304572  0.32484703    -0.15430
F580        F  0.40391415  0.96993092  0.36775350    -0.13060
O581        O  0.93776569  0.49432762  0.43377970    -0.78780
O582        O  0.57807463  0.04674709  0.46722641    -0.78810
O583        O  0.97033102  0.07960797  0.48020816    -0.78810
O584        O  0.52891493  0.42110339  0.47844302    -0.78760
O585        O  0.50884241  0.05035052  0.43738337    -0.78880
O586        O  0.99124987  0.44473292  0.43239511    -0.78800
O587        O  0.56279810  0.48734339  0.45426971    -0.78780
O588        O  0.91365008  0.03079027  0.48325702    -0.78820
C589        C  0.91258577  0.51527498  0.44541567     1.10910
C590        C  0.58436032  0.01583520  0.44805042     1.10790
C591        C  0.98752152  0.07740202  0.44407987     1.10930
C592        C  0.51191852  0.41853055  0.44263706     1.10810
O593        O  0.97039266  0.41860386  0.52082412    -0.78780
O594        O  0.52973031  0.07831861  0.52102020    -0.78860
O595        O  0.93889042  0.00334131  0.56782612    -0.78800
O596        O  0.57856020  0.45359321  0.53081074    -0.78780
O597        O  0.56403141  0.01271891  0.54429039    -0.78830
O598        O  0.91392076  0.46627136  0.51868690    -0.78790
O599        O  0.51016509  0.44877457  0.56255365    -0.78750
O600        O  0.99275204  0.05432616  0.56809068    -0.78820
Co601      Co  0.95554184  0.45824587  0.47676571     1.51530
Co602      Co  0.53379053  0.02896860  0.48877408     1.51690
Co603      Co  0.95610816  0.03975758  0.52447432     1.51570
Co604      Co  0.53390294  0.47056470  0.51055775     1.51470
O605        O  0.98855145  0.49933149  0.50033102    -1.40720
C606        C  0.48847948  0.42135752  0.55648952     1.10830
C607        C  0.01336743  0.08084822  0.55707471     1.10920
C608        C  0.91347419  0.48178303  0.55652214     1.10860
C609        C  0.58544167  0.98452717  0.55003954     1.10840
C610        C  0.99346406  0.21283397  0.33889166     0.04480
C611        C  0.99894360  0.24602948  0.36351265    -0.11670
C612        C  0.00397078  0.28079485  0.34237573     0.01980
C613        C  0.00329772  0.28254004  0.29641387    -0.10190
C614        C  0.99729160  0.24970926  0.27154549     0.04480
C615        C  0.99255069  0.21485745  0.29278035    -0.09610
H616        H  0.99936497  0.24483394  0.39914787     0.10070
H617        H  0.00680813  0.30949138  0.28004284     0.07600
H618        H  0.98823483  0.18943519  0.27349188     0.07450
C619        C  0.77993008  0.50629845  0.34569328     0.04480
C620        C  0.74745633  0.00379468  0.36870622    -0.11670
C621        C  0.71445468  0.50138381  0.34622964     0.01980
C622        C  0.71438002  0.49847352  0.30012522    -0.10190
C623        C  0.74674607  0.49965826  0.27689365     0.04480
C624        C  0.77919265  0.50452967  0.29959343    -0.09610
H625        H  0.74777073  0.00419337  0.40433518     0.10070
H626        H  0.68927328  0.49697328  0.28216673     0.07600
H627        H  0.80384652  0.50728434  0.28111135     0.07450
C628        C  0.78137452  0.49166238  0.65528163     0.04480
C629        C  0.74934900  0.99550892  0.63134721    -0.11670
C630        C  0.71616972  0.49841293  0.65283651     0.01980
C631        C  0.71563699  0.50092147  0.69892173    -0.10190
C632        C  0.74756844  0.49870797  0.72313933     0.04480
C633        C  0.78007248  0.49294012  0.70142648    -0.09610
H634        H  0.75009473  0.99565600  0.59573813     0.10070
H635        H  0.69037820  0.50283684  0.71616289     0.07600
H636        H  0.80423971  0.48914880  0.72068482     0.07450
C637        C  0.00298978  0.21854805  0.65641953     0.04480
C638        C  0.99741544  0.25341248  0.63587976    -0.11670
C639        C  0.99237592  0.28611045  0.66110056     0.01980
C640        C  0.99176506  0.28358176  0.70712574    -0.10190
C641        C  0.99674012  0.24861763  0.72782725     0.04480
C642        C  0.00295291  0.21631049  0.70240258    -0.09610
H643        H  0.99757922  0.25519376  0.60027589     0.10070
H644        H  0.98782764  0.30875943  0.72674182     0.07600
H645        H  0.00689918  0.18932155  0.71835230     0.07450
C646        C  0.74562489  0.46319219  0.16000345     0.04480
C647        C  0.74276416  0.46418744  0.20597011    -0.11670
C648        C  0.74694313  0.49852397  0.22856516     0.01980
C649        C  0.75334794  0.03186728  0.20509310    -0.10190
C650        C  0.75536972  0.03136329  0.15905361     0.04480
C651        C  0.75196391  0.49678393  0.13665683    -0.09610
H652        H  0.73837263  0.43824693  0.22412507     0.10070
H653        H  0.75666169  0.05830700  0.22275477     0.07600
H654        H  0.75359183  0.49603271  0.10107076     0.07450
O655        O  0.76133712  0.30085511  0.06104619    -0.78780
O656        O  0.74212097  0.19656503  0.06867241    -0.78810
O657        O  0.66334421  0.28149352  0.01817596    -0.78810
O658        O  0.81308547  0.23766266  0.04404111    -0.78760
O659        O  0.68809647  0.24547799  0.06762309    -0.78880
O660        O  0.82933064  0.29617264  0.02846794    -0.78800
O661        O  0.77822531  0.17162583  0.02230462    -0.78780
O662        O  0.72059484  0.32992715  0.02044932    -0.78820
C663        C  0.73977189  0.32781669  0.05526735     1.10910
C664        C  0.76243647  0.16995303  0.05888471     1.10790
C665        C  0.66273831  0.26627015  0.05605247     1.10930
C666        C  0.83523865  0.26585298  0.04899633     1.10810
O667        O  0.81215543  0.26151379  0.95251549    -0.78780
O668        O  0.66289875  0.21617980  0.98334727    -0.78860
O669        O  0.74068663  0.30341665  0.93174683    -0.78800
O670        O  0.75757231  0.19830907  0.93760842    -0.78780
O671        O  0.71942780  0.16834654  0.98133057    -0.78830
O672        O  0.77919038  0.32799032  0.97682320    -0.78790
O673        O  0.82681348  0.20279819  0.96741305    -0.78750
O674        O  0.68676435  0.25323753  0.93371241    -0.78820
Co675      Co  0.78404204  0.27876584  0.00893402     1.51530
Co676      Co  0.70530252  0.20887221  0.02479462     1.51690
Co677      Co  0.70504407  0.28987834  0.97640717     1.51570
Co678      Co  0.78275896  0.22043239  0.98876329     1.51470
O679        O  0.73787261  0.24957561  0.99996000    -1.40720
C680        C  0.83348072  0.23322687  0.94720704     1.10830
C681        C  0.66177954  0.23141711  0.94541802     1.10920
C682        C  0.76155478  0.33008203  0.94152282     1.10860
C683        C  0.73665044  0.17069141  0.94522962     1.10840
C684        C  0.53045745  0.25790233  0.15492480     0.04480
C685        C  0.52966289  0.25641450  0.20100792    -0.11670
C686        C  0.99716507  0.25179540  0.22326582     0.01980
C687        C  0.96481246  0.25068491  0.19960210    -0.10190
C688        C  0.96496051  0.25324599  0.15346350     0.04480
C689        C  0.99803717  0.25528772  0.13147625    -0.09610
H690        H  0.55431066  0.25899534  0.21978551     0.10070
H691        H  0.93968463  0.24925716  0.21725939     0.07600
H692        H  0.99849246  0.25525936  0.09585241     0.07450
C693        C  0.74899265  0.46649743  0.84103099     0.04480
C694        C  0.75079224  0.46615400  0.79513500    -0.11670
C695        C  0.74671115  0.49972796  0.77145538     0.01980
C696        C  0.74255485  0.03411577  0.79393171    -0.10190
C697        C  0.74154237  0.03485140  0.84018765     0.04480
C698        C  0.74339844  0.50052819  0.86321348    -0.09610
H699        H  0.75467764  0.43973304  0.77784644     0.10070
H700        H  0.74128820  0.06015782  0.77541092     0.07600
H701        H  0.74136078  0.50025341  0.89876718     0.07450
C702        C  0.52957077  0.23879269  0.84487972     0.04480
C703        C  0.99729646  0.24299890  0.86794632    -0.11670
C704        C  0.96435290  0.24600174  0.84558794     0.01980
C705        C  0.96434855  0.24862968  0.79948947    -0.10190
C706        C  0.99654254  0.24596761  0.77611578     0.04480
C707        C  0.52867041  0.23963654  0.79869227    -0.09610
H708        H  0.99761441  0.24347527  0.90356052     0.10070
H709        H  0.93932891  0.25112117  0.78160856     0.07600
H710        H  0.55296046  0.23553733  0.78000423     0.07450
C711        C  0.71627877  0.13373288  0.87887981     0.24950
C712        C  0.73793911  0.13743176  0.91647260    -0.23160
C713        C  0.76148239  0.10846501  0.92764012     0.19860
C714        C  0.76326435  0.07592387  0.90207939     0.24890
C715        C  0.74071537  0.07105201  0.86516260    -0.23100
C716        C  0.71745497  0.10059143  0.85342755     0.19790
F717        F  0.69511404  0.09696251  0.81830860    -0.13060
F718        F  0.69367146  0.16181321  0.86735060    -0.15420
F719        F  0.78759921  0.04935742  0.91327752    -0.15430
F720        F  0.78302449  0.11171280  0.96352054    -0.13060
C721        C  0.72650103  0.38374450  0.91383239     0.24950
C722        C  0.75957509  0.36529450  0.91642094    -0.23160
C723        C  0.78936864  0.38021152  0.89416899     0.19860
C724        C  0.78581241  0.41287790  0.86864039     0.24890
C725        C  0.75268957  0.43132169  0.86625922    -0.23100
C726        C  0.72320026  0.41677884  0.88937427     0.19790
F727        F  0.69111686  0.43443685  0.88783902    -0.13100
F728        F  0.69745970  0.36996119  0.93562019    -0.15420
F729        F  0.81470228  0.42688541  0.84680721    -0.15430
F730        F  0.82150496  0.36280548  0.89646068    -0.13060
C731        C  0.89692560  0.28722784  0.07008521     0.24950
C732        C  0.86733329  0.26308851  0.07764586    -0.23160
C733        C  0.86977186  0.23569445  0.11101646     0.19860
C734        C  0.90130105  0.23243077  0.13601864     0.24890
C735        C  0.93096011  0.25646319  0.12802535    -0.23100
C736        C  0.92810535  0.28416251  0.09510539     0.19790
F737        F  0.95548386  0.30884597  0.08728978    -0.13060
F738        F  0.89627607  0.31332437  0.03741970    -0.15420
F739        F  0.90311069  0.20511077  0.16717809    -0.15430
F740        F  0.84168952  0.21212387  0.11957343    -0.13060
C741        C  0.59467281  0.24041006  0.14355184     0.24950
C742        C  0.56508533  0.26223986  0.13132061    -0.23160
C743        C  0.56879787  0.28784438  0.09614948     0.19860
C744        C  0.60097224  0.29049744  0.07272234     0.24890
C745        C  0.63036939  0.26798067  0.08433612    -0.23100
C746        C  0.62696873  0.24354273  0.12082805     0.19790
F747        F  0.65434110  0.22110527  0.13365727    -0.13060
F748        F  0.59192903  0.21449209  0.17627660    -0.15420
F749        F  0.60299449  0.31465868  0.03818923    -0.15430
F750        F  0.54126128  0.31045708  0.08438836    -0.13060
C751        C  0.89450755  0.21144118  0.92656761     0.24950
C752        C  0.86577014  0.23605856  0.91903262    -0.23160
C753        C  0.86945447  0.26409553  0.88651724     0.19860
C754        C  0.90138728  0.26762288  0.86246764     0.24890
C755        C  0.93016374  0.24310779  0.87049088    -0.23100
C756        C  0.92604241  0.21473569  0.90245832     0.19790
F757        F  0.95249381  0.18954634  0.91012693    -0.13060
F758        F  0.89268264  0.18455431  0.95830609    -0.15420
F759        F  0.90443411  0.29556244  0.83215460    -0.15430
F760        F  0.84214966  0.28793127  0.87777239    -0.13060
C761        C  0.56641624  0.21083362  0.90656142     0.24950
C762        C  0.56415367  0.23396639  0.86891529    -0.23160
C763        C  0.59524221  0.25314861  0.85475407     0.19860
C764        C  0.62744278  0.24985414  0.87776812     0.24890
C765        C  0.62931999  0.22849558  0.91690185    -0.23100
C766        C  0.59847679  0.20849939  0.93056460     0.19790
F767        F  0.59889329  0.18742287  0.96780231    -0.13060
F768        F  0.53757378  0.19041321  0.92036471    -0.15420
F769        F  0.65640736  0.26923677  0.86237736    -0.15430
F770        F  0.59426196  0.27693248  0.81979965    -0.13060
C771        C  0.73462712  0.09640880  0.14265544     0.24950
C772        C  0.75897765  0.06734399  0.13464109    -0.23160
C773        C  0.78609524  0.07292663  0.10323754     0.19860
C774        C  0.78838948  0.10691167  0.07970498     0.24890
C775        C  0.76340474  0.13575869  0.08702593    -0.23100
C776        C  0.73681488  0.13019080  0.11934672     0.19790
F777        F  0.71170273  0.15675016  0.12735672    -0.13060
F778        F  0.70756193  0.09147852  0.17191010    -0.15420
F779        F  0.81495930  0.11147027  0.04975956    -0.15430
F780        F  0.81051061  0.04559281  0.09561595    -0.13060
C781        C  0.77534206  0.40966577  0.12252398     0.24950
C782        C  0.74366255  0.42688994  0.13626752    -0.23160
C783        C  0.71041353  0.41009740  0.12572021     0.19860
C784        C  0.70888968  0.37701195  0.10031554     0.24890
C785        C  0.74066031  0.35995551  0.08615090    -0.23100
C786        C  0.77390106  0.37625922  0.09804648     0.19790
F787        F  0.80500193  0.36107080  0.08374382    -0.13060
F788        F  0.80768270  0.42577148  0.13200590    -0.15420
F789        F  0.67651051  0.36172421  0.08937619    -0.15430
F790        F  0.67952146  0.42637874  0.13896197    -0.13060
C791        C  0.95758568  0.36464539  0.58917038     0.24950
C792        C  0.98718630  0.38977921  0.58848602    -0.23160
C793        C  0.51725426  0.38181165  0.61502916     0.19860
C794        C  0.51823403  0.34869863  0.64003263     0.24890
C795        C  0.98933118  0.32300338  0.63899434    -0.23100
C796        C  0.95878331  0.33144993  0.61403566     0.19790
F797        F  0.93041787  0.30707175  0.61305174    -0.13060
F798        F  0.92774287  0.37176820  0.56502259    -0.15420
F799        F  0.54829875  0.34059247  0.66330653    -0.15430
F800        F  0.54672992  0.40469218  0.61465237    -0.13060
C801        C  0.97944748  0.13577342  0.58355579     0.24950
C802        C  0.01216709  0.11663860  0.58142456    -0.23160
C803        C  0.54243136  0.13170091  0.60300752     0.19860
C804        C  0.53959352  0.16500986  0.62773773     0.24890
C805        C  0.00675769  0.18401951  0.62982040    -0.23100
C806        C  0.97688025  0.16944013  0.60712425     0.19790
F807        F  0.94497700  0.18743150  0.60868966    -0.13060
F808        F  0.94995255  0.12188802  0.56244222    -0.15420
F809        F  0.56877327  0.17880996  0.64951256    -0.15430
F810        F  0.57429010  0.11374271  0.60103515    -0.13060
C811        C  0.54254968  0.36503191  0.40424593     0.24950
C812        C  0.01103341  0.38335924  0.41685177    -0.23160
C813        C  0.97754158  0.36742667  0.40541122     0.19860
C814        C  0.97552540  0.33377756  0.38163617     0.24890
C815        C  0.00688771  0.31579170  0.36833796    -0.23100
C816        C  0.54046820  0.33152732  0.37959040     0.19790
F817        F  0.57104948  0.31445496  0.36664645    -0.13060
F818        F  0.57511598  0.38002429  0.41484321    -0.15420
F819        F  0.94290014  0.31863531  0.37151370    -0.15430
F820        F  0.94666664  0.38397021  0.41839558    -0.13060
C821        C  0.51311842  0.14667799  0.35378318     0.24950
C822        C  0.98916194  0.17617873  0.36171436    -0.23160
C823        C  0.96236208  0.17133442  0.39351678     0.19860
C824        C  0.96041181  0.13820314  0.41835551     0.24890
C825        C  0.98565395  0.10927963  0.41234297    -0.23100
C826        C  0.51147698  0.11355316  0.37883876     0.19790
F827        F  0.53645535  0.08668099  0.37171723    -0.13060
F828        F  0.53952281  0.15086414  0.32352103    -0.15420
F829        F  0.93431409  0.13506312  0.44917275    -0.15430
F830        F  0.93832387  0.19907933  0.40102663    -0.13060
C831        C  0.62133493  0.01583470  0.61079848     0.24950
C832        C  0.61794835  0.98793800  0.57796882    -0.23160
C833        C  0.64693999  0.46374629  0.57029754     0.19860
C834        C  0.67844172  0.46723358  0.59476199     0.24890
C835        C  0.68222863  0.49543835  0.62715757    -0.23100
C836        C  0.65323009  0.01962621  0.63512840     0.19790
F837        F  0.65596017  0.04741312  0.66581948    -0.13060
F838        F  0.59369118  0.03912574  0.61975191    -0.15420
F839        F  0.70509597  0.44230549  0.58714888    -0.15430
F840        F  0.64530826  0.43702073  0.53822647    -0.13060
C841        C  0.84690680  0.00627143  0.64567890     0.24950
C842        C  0.81603381  0.48624851  0.63207829    -0.23160
C843        C  0.81849332  0.46166024  0.59568639     0.19860
C844        C  0.85056822  0.45866495  0.57219736     0.24890
C845        C  0.88117501  0.47965832  0.58502804    -0.23100
C846        C  0.87910809  0.00260879  0.62299454     0.19790
F847        F  0.90780933  0.02318020  0.63738794    -0.13060
F848        F  0.84562439  0.03114467  0.67966603    -0.15420
F849        F  0.85123613  0.43590995  0.53623815    -0.15430
F850        F  0.78979058  0.44047318  0.58262926    -0.13060
C851        C  0.61923625  0.48432253  0.38750996     0.24950
C852        C  0.61646465  0.01265017  0.41984005    -0.23160
C853        C  0.64587466  0.03720815  0.42711383     0.19860
C854        C  0.67723175  0.03358609  0.40287020     0.24890
C855        C  0.68039274  0.50498094  0.37101283    -0.23100
C856        C  0.65092486  0.48055749  0.36324069     0.19790
F857        F  0.65309177  0.45242681  0.33301415    -0.13060
F858        F  0.59132779  0.46035143  0.37926039    -0.15420
F859        F  0.70448846  0.05858361  0.41036927    -0.15430
F860        F  0.64489597  0.06423463  0.45882930    -0.13060
C861        C  0.85056676  0.03925189  0.42862338     0.24950
C862        C  0.87998955  0.51680109  0.41713539    -0.23160
C863        C  0.87652480  0.49229665  0.38055570     0.19860
C864        C  0.84418640  0.48903204  0.35763839     0.24890
C865        C  0.81456791  0.51080272  0.36968520    -0.23100
C866        C  0.81831781  0.03648245  0.40495506     0.19790
F867        F  0.79077836  0.05909300  0.41652912    -0.13060
F868        F  0.85266367  0.06349367  0.46319874    -0.15420
F869        F  0.84146045  0.46304638  0.32484571    -0.15430
F870        F  0.90391205  0.46993175  0.36775188    -0.13060
O871        O  0.93776819  0.99432806  0.43378032    -0.78780
O872        O  0.57807244  0.54674668  0.46722680    -0.78810
O873        O  0.97032880  0.57960784  0.48020779    -0.78810
O874        O  0.52891744  0.92110362  0.47844320    -0.78760
O875        O  0.50884037  0.55035039  0.43738326    -0.78880
O876        O  0.99125237  0.94473341  0.43239544    -0.78800
O877        O  0.56280053  0.98734363  0.45426983    -0.78780
O878        O  0.91364777  0.53079020  0.48325620    -0.78820
C879        C  0.91258813  0.01527516  0.44541642     1.10910
C880        C  0.58435800  0.51583490  0.44805053     1.10790
C881        C  0.98751955  0.57740195  0.44407968     1.10930
C882        C  0.51192089  0.91853085  0.44263734     1.10810
O883        O  0.97039524  0.91860409  0.52082432    -0.78780
O884        O  0.52972792  0.57831830  0.52102025    -0.78860
O885        O  0.93888770  0.50334114  0.56782541    -0.78800
O886        O  0.57856290  0.95359351  0.53081074    -0.78780
O887        O  0.56402870  0.51271850  0.54429072    -0.78830
O888        O  0.91392344  0.96627151  0.51868761    -0.78790
O889        O  0.51016784  0.94877458  0.56255397    -0.78750
O890        O  0.99274931  0.55432596  0.56809044    -0.78820
Co891      Co  0.95554437  0.95824618  0.47676612     1.51530
Co892      Co  0.53378816  0.52896832  0.48877413     1.51690
Co893      Co  0.95610565  0.53975743  0.52447377     1.51570
Co894      Co  0.53390553  0.97056489  0.51055801     1.51470
O895        O  0.98855397  0.99933169  0.50033147    -1.40720
C896        C  0.48848206  0.92135766  0.55648981     1.10830
C897        C  0.01336489  0.58084792  0.55707468     1.10920
C898        C  0.91347701  0.98178300  0.55652298     1.10860
C899        C  0.58543886  0.48452670  0.55003994     1.10840
C900        C  0.99346402  0.71283428  0.33889228     0.04480
C901        C  0.99894402  0.74602967  0.36351335    -0.11670
C902        C  0.00397163  0.78079501  0.34237650     0.01980
C903        C  0.00329855  0.78254029  0.29641466    -0.10190
C904        C  0.99729198  0.74970965  0.27154622     0.04480
C905        C  0.99255063  0.71485787  0.29278097    -0.09610
H906        H  0.99936540  0.74483405  0.39914857     0.10070
H907        H  0.00680923  0.80949163  0.28004369     0.07600
H908        H  0.98823438  0.68943571  0.27349244     0.07450
C909        C  0.77993259  0.00629844  0.34569376     0.04480
C910        C  0.74745385  0.50379456  0.36870579    -0.11670
C911        C  0.71445719  0.00138390  0.34623001     0.01980
C912        C  0.71438259  0.99847353  0.30012560    -0.10190
C913        C  0.74674866  0.99965815  0.27689407     0.04480
C914        C  0.77919523  0.00452951  0.29959390    -0.09610
H915        H  0.74776828  0.50419315  0.40433476     0.10070
H916        H  0.68927586  0.99697334  0.28216708     0.07600
H917        H  0.80384914  0.00728406  0.28111188     0.07450
C918        C  0.78137737  0.99166234  0.65528222     0.04480
C919        C  0.74934576  0.49550854  0.63134735    -0.11670
C920        C  0.71617270  0.99841380  0.65283563     0.01980
C921        C  0.71563934  0.00092238  0.69892080    -0.10190
C922        C  0.74757035  0.99870854  0.72313914     0.04480
C923        C  0.78007468  0.99294023  0.70142706    -0.09610
H924        H  0.75009099  0.49565570  0.59573825     0.10070
H925        H  0.69038031  0.00283795  0.71616139     0.07600
H926        H  0.80424157  0.98914857  0.72068597     0.07450
C927        C  0.00298882  0.71854778  0.65641980     0.04480
C928        C  0.99741517  0.75341232  0.63587997    -0.11670
C929        C  0.99237640  0.78611046  0.66110073     0.01980
C930        C  0.99176560  0.78358186  0.70712591    -0.10190
C931        C  0.99673994  0.74861764  0.72782746     0.04480
C932        C  0.00295197  0.71631030  0.70240285    -0.09610
H933        H  0.99757892  0.75519354  0.60027609     0.10070
H934        H  0.98782877  0.80875966  0.72674196     0.07600
H935        H  0.00689776  0.68932129  0.71835262     0.07450
C936        C  0.74562610  0.96319258  0.16000360     0.04480
C937        C  0.74276611  0.96418761  0.20597034    -0.11670
C938        C  0.74694564  0.99852399  0.22856556     0.01980
C939        C  0.75334551  0.53186718  0.20509259    -0.10190
C940        C  0.75536804  0.53136294  0.15905316     0.04480
C941        C  0.75196497  0.99678441  0.13665708    -0.09610
H942        H  0.73837458  0.93824705  0.22412520     0.10070
H943        H  0.75665888  0.55830702  0.22275413     0.07600
H944        H  0.75359231  0.99603338  0.10107097     0.07450
O945        O  0.76133660  0.80085530  0.06104658    -0.78780
O946        O  0.74212109  0.69656481  0.06867218    -0.78810
O947        O  0.66334398  0.78149276  0.01817597    -0.78810
O948        O  0.81308506  0.73766373  0.04404311    -0.78760
O949        O  0.68809595  0.74547671  0.06762289    -0.78880
O950        O  0.82933031  0.79617345  0.02846886    -0.78800
O951        O  0.77822610  0.67162601  0.02230509    -0.78780
O952        O  0.72059424  0.82992702  0.02044959    -0.78820
C953        C  0.73977138  0.82781685  0.05526759     1.10910
C954        C  0.76243659  0.66995281  0.05888469     1.10790
C955        C  0.66273792  0.76626909  0.05605232     1.10930
C956        C  0.83523822  0.76585410  0.04899797     1.10810
O957        O  0.81215572  0.76151450  0.95251626    -0.78780
O958        O  0.66289912  0.71617893  0.98334675    -0.78860
O959        O  0.74068653  0.80341627  0.93174727    -0.78800
O960        O  0.75757438  0.69830981  0.93760902    -0.78780
O961        O  0.71942900  0.66834660  0.98132951    -0.78830
O962        O  0.77918985  0.82799073  0.97682353    -0.78790
O963        O  0.82681486  0.70279958  0.96741536    -0.78750
O964        O  0.68676458  0.75323713  0.93371237    -0.78820
Co965      Co  0.78404190  0.77876629  0.00893452     1.51530
Co966      Co  0.70530281  0.70887161  0.02479413     1.51690
Co967      Co  0.70504389  0.78987797  0.97640738     1.51570
Co968      Co  0.78275974  0.72043307  0.98876465     1.51470
O969        O  0.73787268  0.74957557  0.99996032    -1.40720
C970        C  0.83348158  0.73322798  0.94720858     1.10830
C971        C  0.66177988  0.73141648  0.94541767     1.10920
C972        C  0.76155417  0.83008206  0.94152317     1.10860
C973        C  0.73665250  0.67069197  0.94522917     1.10840
C974        C  0.53045724  0.75790260  0.15492527     0.04480
C975        C  0.52966293  0.75641471  0.20100840    -0.11670
C976        C  0.99716524  0.75179592  0.22326657     0.01980
C977        C  0.96481249  0.75068585  0.19960316    -0.10190
C978        C  0.96496028  0.75324703  0.15346458     0.04480
C979        C  0.99803682  0.75528847  0.13147702    -0.09610
H980        H  0.55431081  0.75899521  0.21978580     0.10070
H981        H  0.93968476  0.74925832  0.21726068     0.07600
H982        H  0.99849188  0.75526019  0.09585317     0.07450
C983        C  0.74898918  0.96649648  0.84103019     0.04480
C984        C  0.75079163  0.96615377  0.79513441    -0.11670
C985        C  0.74671189  0.99972808  0.77145514     0.01980
C986        C  0.74255492  0.53411591  0.79393163    -0.10190
C987        C  0.74154549  0.53485223  0.84018763     0.04480
C988        C  0.74339303  0.00052679  0.86321278    -0.09610
H989        H  0.75467814  0.93973309  0.77784568     0.10070
H990        H  0.74128660  0.56015774  0.77541057     0.07600
H991        H  0.74135265  0.00025119  0.89876620     0.07450
C992        C  0.52957112  0.73879273  0.84487969     0.04480
C993        C  0.99729693  0.74299933  0.86794652    -0.11670
C994        C  0.96435328  0.74600234  0.84558839     0.01980
C995        C  0.96434870  0.74863014  0.79948991    -0.10190
C996        C  0.99654255  0.74596776  0.77611599     0.04480
C997        C  0.52867055  0.73963649  0.79869225    -0.09610
H998        H  0.99761507  0.74347578  0.90356072     0.10070
H999        H  0.93932898  0.75112176  0.78160919     0.07600
H1000       H  0.55296049  0.73553706  0.78000406     0.07450
C1001       C  0.71627727  0.63373105  0.87888291     0.24950
C1002       C  0.73794204  0.63743279  0.91647153    -0.23160
C1003       C  0.76149014  0.60846910  0.92763463     0.19860
C1004       C  0.76327186  0.57592771  0.90207417     0.24890
C1005       C  0.74071876  0.57105314  0.86516168    -0.23100
C1006       C  0.71745406  0.60058979  0.85343045     0.19790
F1007       F  0.69510953  0.59695806  0.81831529    -0.13060
F1008       F  0.69366537  0.66180852  0.86735784    -0.15420
F1009       F  0.78761001  0.54936342  0.91326846    -0.15430
F1010       F  0.78303660  0.61171987  0.96351084    -0.13060
C1011       C  0.72649902  0.88374318  0.91383182     0.24950
C1012       C  0.75957367  0.86529437  0.91642113    -0.23160
C1013       C  0.78936694  0.88021210  0.89416931     0.19860
C1014       C  0.78580993  0.91287807  0.86864020     0.24890
C1015       C  0.75268652  0.93132072  0.86625828    -0.23100
C1016       C  0.72319743  0.91677712  0.88937313     0.19790
F1017       F  0.69111349  0.93443403  0.88783720    -0.13100
F1018       F  0.69745790  0.86995910  0.93561939    -0.15420
F1019       F  0.81469963  0.92688639  0.84680739    -0.15430
F1020       F  0.82150376  0.86280714  0.89646161    -0.13060
C1021       C  0.89692505  0.78722933  0.07008698     0.24950
C1022       C  0.86733276  0.76308998  0.07764771    -0.23160
C1023       C  0.86977138  0.73569595  0.11101834     0.19860
C1024       C  0.90130066  0.73243219  0.13602032     0.24890
C1025       C  0.93095975  0.75646449  0.12802680    -0.23100
C1026       C  0.92810490  0.78416390  0.09510696     0.19790
F1027       F  0.95548346  0.80884726  0.08729120    -0.13060
F1028       F  0.89627544  0.81332590  0.03742151    -0.15420
F1029       F  0.90311037  0.70511215  0.16717972    -0.15430
F1030       F  0.84168905  0.71212540  0.11957544    -0.13060
C1031       C  0.59467233  0.74040947  0.14355181     0.24950
C1032       C  0.56508505  0.76223966  0.13132080    -0.23160
C1033       C  0.56879772  0.78784415  0.09614966     0.19860
C1034       C  0.60097204  0.79049686  0.07272236     0.24890
C1035       C  0.63036901  0.76797977  0.08433599    -0.23100
C1036       C  0.62696820  0.74354178  0.12082786     0.19790
F1037       F  0.65434038  0.72110400  0.13365691    -0.13060
F1038       F  0.59192839  0.71449149  0.17627655    -0.15420
F1039       F  0.60299441  0.81465811  0.03818926    -0.15430
F1040       F  0.54126134  0.81045717  0.08438871    -0.13060
C1041       C  0.89450830  0.71144215  0.92656869     0.24950
C1042       C  0.86577093  0.73605968  0.91903400    -0.23160
C1043       C  0.86945521  0.76409668  0.88651863     0.19860
C1044       C  0.90138788  0.76762386  0.86246871     0.24890
C1045       C  0.93016426  0.74310859  0.87049163    -0.23100
C1046       C  0.92604300  0.71473650  0.90245909     0.19790
F1047       F  0.95249432  0.68954699  0.91012740    -0.13060
F1048       F  0.89268349  0.68455523  0.95830711    -0.15420
F1049       F  0.90443467  0.79556342  0.83215566    -0.15430
F1050       F  0.84215051  0.78793266  0.87777412    -0.13060
C1051       C  0.56641657  0.71083331  0.90656112     0.24950
C1052       C  0.56415406  0.73396613  0.86891503    -0.23160
C1053       C  0.59524268  0.75314812  0.85475369     0.19860
C1054       C  0.62744327  0.74985346  0.87776766     0.24890
C1055       C  0.62932039  0.72849494  0.91690142    -0.23100
C1056       C  0.59847713  0.70849888  0.93056422     0.19790
F1057       F  0.59889357  0.68742236  0.96780193    -0.13060
F1058       F  0.53757401  0.69041308  0.92036449    -0.15420
F1059       F  0.65640794  0.76923590  0.86237685    -0.15430
F1060       F  0.59426250  0.77693195  0.81979923    -0.13060
C1061       C  0.73462527  0.59640812  0.14265385     0.24950
C1062       C  0.75897619  0.56734349  0.13464045    -0.23160
C1063       C  0.78609440  0.57292619  0.10323770     0.19860
C1064       C  0.78838897  0.60691120  0.07970512     0.24890
C1065       C  0.76340409  0.63575818  0.08702543    -0.23100
C1066       C  0.73681343  0.63019011  0.11934522     0.19790
F1067       F  0.71170093  0.65674931  0.12735429    -0.13060
F1068       F  0.70755941  0.59147766  0.17190753    -0.15420
F1069       F  0.81495926  0.61146984  0.04976033    -0.15430
F1070       F  0.81051005  0.54559249  0.09561696    -0.13060
C1071       C  0.77534245  0.90966526  0.12252489     0.24950
C1072       C  0.74366317  0.92689043  0.13626746    -0.23160
C1073       C  0.71041390  0.91009890  0.12571915     0.19860
C1074       C  0.70888962  0.87701341  0.10031454     0.24890
C1075       C  0.74066004  0.85995593  0.08615088    -0.23100
C1076       C  0.77390100  0.87625871  0.09804739     0.19790
F1077       F  0.80500176  0.86106936  0.08374571    -0.13060
F1078       F  0.80768334  0.92576999  0.13200773    -0.15420
F1079       F  0.67651025  0.86172658  0.08937442    -0.15430
F1080       F  0.67952203  0.92638118  0.13896005    -0.13060
C1081       C  0.95758746  0.86464588  0.58917035     0.24950
C1082       C  0.98718834  0.88977938  0.58848629    -0.23160
C1083       C  0.51725638  0.88181129  0.61502936     0.19860
C1084       C  0.51823567  0.84869820  0.64003277     0.24890
C1085       C  0.98933226  0.82300344  0.63899447    -0.23100
C1086       C  0.95878463  0.83145036  0.61403554     0.19790
F1087       F  0.93041895  0.80707250  0.61305132    -0.13060
F1088       F  0.92774485  0.87176905  0.56502234    -0.15420
F1089       F  0.54830028  0.84059150  0.66330661    -0.15430
F1090       F  0.54673237  0.90469135  0.61465251    -0.13060
C1091       C  0.97944534  0.63577319  0.58355650     0.24950
C1092       C  0.01216483  0.61663819  0.58142479    -0.23160
C1093       C  0.54242942  0.63170033  0.60300727     0.19860
C1094       C  0.53959200  0.66500930  0.62773753     0.24890
C1095       C  0.00675622  0.68401914  0.62982073    -0.23100
C1096       C  0.97687849  0.66943992  0.60712501     0.19790
F1097       F  0.94497537  0.68743151  0.60869084    -0.13060
F1098       F  0.94995017  0.62188798  0.56244324    -0.15420
F1099       F  0.56877204  0.67880924  0.64951189    -0.15430
F1100       F  0.57428805  0.61374198  0.60103436    -0.13060
C1101       C  0.54255141  0.86503171  0.40424639     0.24950
C1102       C  0.01103539  0.88335954  0.41685209    -0.23160
C1103       C  0.97754339  0.86742761  0.40541109     0.19860
C1104       C  0.97552683  0.83377843  0.38163625     0.24890
C1105       C  0.00688894  0.81579180  0.36833875    -0.23100
C1106       C  0.54046951  0.83152703  0.37959105     0.19790
F1107       F  0.57105058  0.81445427  0.36664708    -0.13060
F1108       F  0.57511787  0.88002375  0.41484349    -0.15420
F1109       F  0.94290140  0.81863683  0.37151328    -0.15430
F1110       F  0.94666860  0.88397185  0.41839482    -0.13060
C1111       C  0.51311734  0.64667795  0.35378339     0.24950
C1112       C  0.98916140  0.67617904  0.36171482    -0.23160
C1113       C  0.96236146  0.67133500  0.39351718     0.19860
C1114       C  0.96041069  0.63820361  0.41835566     0.24890
C1115       C  0.98565241  0.60927972  0.41234295    -0.23100
C1116       C  0.51147544  0.61355301  0.37883873     0.19790
F1117       F  0.53645344  0.58668050  0.37171702    -0.13060
F1118       F  0.53952179  0.65086385  0.32352128    -0.15420
F1119       F  0.93431289  0.63506387  0.44917286    -0.15430
F1120       F  0.93832365  0.69908026  0.40102719    -0.13060
C1121       C  0.62133175  0.51583368  0.61079969     0.24950
C1122       C  0.61794530  0.48793721  0.57796973    -0.23160
C1123       C  0.64694310  0.96374722  0.57029644     0.19860
C1124       C  0.67844495  0.96723468  0.59476066     0.24890
C1125       C  0.68223187  0.99543951  0.62715616    -0.23100
C1126       C  0.65322682  0.51962499  0.63512989     0.19790
F1127       F  0.65595683  0.54741172  0.66582118    -0.13060
F1128       F  0.59368801  0.53912475  0.61975304    -0.15420
F1129       F  0.70509919  0.94230660  0.58714754    -0.15430
F1130       F  0.64531126  0.93702153  0.53822551    -0.13060
C1131       C  0.84690366  0.50627229  0.64567739     0.24950
C1132       C  0.81603687  0.98624794  0.63207952    -0.23160
C1133       C  0.81849640  0.96165967  0.59568761     0.19860
C1134       C  0.85057129  0.95866442  0.57219856     0.24890
C1135       C  0.88117805  0.97965783  0.58502922    -0.23100
C1136       C  0.87910495  0.50260960  0.62299308     0.19790
F1137       F  0.90780613  0.52318118  0.63738634    -0.13060
F1138       F  0.84562119  0.53114575  0.67966430    -0.15420
F1139       F  0.85123918  0.93590953  0.53623926    -0.15430
F1140       F  0.78979364  0.94047269  0.58263039    -0.13060
C1141       C  0.61923866  0.98432275  0.38751002     0.24950
C1142       C  0.61646228  0.51264993  0.41984003    -0.23160
C1143       C  0.64587227  0.53720798  0.42711367     0.19860
C1144       C  0.67722931  0.53358596  0.40286992     0.24890
C1145       C  0.68039521  0.00498107  0.37101311    -0.23100
C1146       C  0.65092732  0.98055766  0.36324087     0.19790
F1147       F  0.65309426  0.95242697  0.33301434    -0.13060
F1148       F  0.59133018  0.96035170  0.37926035    -0.15420
F1149       F  0.70448599  0.55858353  0.41036887    -0.15430
F1150       F  0.64489361  0.56423449  0.45882911    -0.13060
C1151       C  0.85056431  0.53925159  0.42862300     0.24950
C1152       C  0.87999189  0.01680107  0.41713617    -0.23160
C1153       C  0.87652705  0.99229624  0.38055684     0.19860
C1154       C  0.84418871  0.98903167  0.35763941     0.24890
C1155       C  0.81457036  0.01080271  0.36968578    -0.23100
C1156       C  0.81831531  0.53648217  0.40495477     0.19790
F1157       F  0.79077577  0.55909245  0.41652924    -0.13060
F1158       F  0.85266111  0.56349301  0.46319871    -0.15420
F1159       F  0.84146266  0.96304573  0.32484705    -0.15430
F1160       F  0.90391414  0.96993092  0.36775352    -0.13060
loop_ 
_geom_bond_atom_site_label_1 
_geom_bond_atom_site_label_2 
_geom_bond_distance 
_geom_bond_site_symmetry_2 
_ccdc_geom_bond_type 
O1            C9   1.256       .  A
O1          Co21   1.950       .  S
O2           C10   1.264       .  A
O2          Co22   1.882       .  S
O3           C11   1.277       .  A
O3          Co23   2.020       .  S
O4           C12   1.261       .  A
O4          Co24   2.010       .  S
O5          C591   1.269   1_455  A
O5          Co22   1.973       .  S
O6          C592   1.253       .  A
O6          Co21   1.963       .  S
O7          C300   1.297       .  A
O7          Co24   2.109       .  S
O8          C299   1.275       .  A
O8          Co23   2.038       .  S
C9          O298   1.275       .  A
C9          C282   1.488       .  S
C10         O297   1.297   1_545  A
C10         C272   1.482       .  S
C11         O585   1.269       .  A
C11         C245   1.489       .  S
C12         O586   1.253   1_455  A
C12         C812   1.470       .  S
O13         C606   1.278       .  A
O13         Co21   2.023       .  S
O14         C607   1.261       .  A
O14         Co22   2.010       .  S
O15         C318   1.256   1_545  A
O15         Co23   1.951       .  S
O16         C319   1.264       .  A
O16         Co24   1.880       .  S
O17          C29   1.298   1_545  A
O17         Co22   2.112       .  S
O18          C28   1.274       .  A
O18         Co21   2.036       .  S
O19          C26   1.269   1_455  A
O19         Co24   1.970       .  S
O20          C27   1.253       .  A
O20         Co23   1.965       .  S
Co21         O25   2.023       .  S
Co22        O895   2.009   1_445  S
Co23        O315   2.025   1_545  S
Co24        O605   2.009   1_455  S
O25        Co892   2.009       .  S
O25        Co313   2.025       .  S
O25        Co604   2.009       .  S
C26         O593   1.278       .  A
C26         C792   1.484       .  S
C27         O594   1.261       .  A
C27         C222   1.468       .  S
C28         O305   1.256       .  A
C28         C265   1.489       .  S
C29         O306   1.264       .  A
C29         C252   1.482       .  S
C30         C242   1.480       .  S
C30          C31   1.405       .  A
C30          C35   1.405       .  A
C31          C32   1.401       .  A
C31          H36   1.085       .  S
C32         C235   1.471       .  S
C32          C33   1.400       .  A
C33          C34   1.401       .  A
C33          H37   1.084       .  S
C34         C106   1.470       .  S
C34          C35   1.403       .  A
C35          H38   1.084       .  S
C39         C285   1.488       .  S
C39          C44   1.404       .  A
C39         C330   1.404       .  A
C40         C329   1.404       .  A
C40         C331   1.408       .  A
C40          H45   1.084       .  S
C41         C275   1.487       .  S
C41          C42   1.406       .  A
C41         C330   1.408       .  A
C42          C43   1.402       .  A
C42          H46   1.083       .  S
C43          C68   1.470       .  S
C43          C44   1.400       .  A
C44          H47   1.083       .  S
C48         C262   1.490       .  S
C48          C53   1.405       .  A
C48         C339   1.405       .  A
C49         C338   1.405       .  A
C49         C340   1.407       .  A
C49          H54   1.084       .  S
C50         C255   1.488       .  S
C50          C51   1.405       .  A
C50         C339   1.407       .  A
C51          C52   1.401       .  A
C51          H55   1.083       .  S
C52         C115   1.470       .  S
C52          C53   1.400       .  A
C53          H56   1.083       .  S
C57         C225   1.473       .  S
C57          C58   1.402       .  A
C57          C62   1.401       .  A
C58          C59   1.403       .  A
C58          H63   1.085       .  S
C59         C215   1.476       .  S
C59          C60   1.403       .  A
C60          C61   1.404       .  A
C60          H64   1.084       .  S
C61         C126   1.472       .  S
C61          C62   1.402       .  A
C62          H65   1.084       .  S
C66         C202   1.474       .  S
C66          C67   1.403       .  A
C66          C71   1.404       .  A
C67          C68   1.402       .  A
C67          H72   1.084       .  S
C68         C359   1.399       .  A
C69          C70   1.403       .  A
C69         C358   1.399   1_545  A
C69          H73   1.084       .  S
C70         C192   1.481       .  S
C70         C361   1.404   1_545  A
C71         C360   1.404       .  A
C71          H74   1.085       .  S
O75          C83   1.268       .  A
O75         Co95   1.966       .  S
O76          C84   1.253       .  A
O76         Co96   1.965       .  S
O77          C85   1.273       .  A
O77         Co97   2.032   1_554  S
O78          C86   1.296       .  A
O78         Co98   2.108   1_554  S
O79          C85   1.256       .  A
O79         Co96   1.952       .  S
O80          C86   1.264       .  A
O80         Co95   1.885       .  S
O81          C84   1.262       .  A
O81         Co98   2.014   1_554  S
O82          C83   1.279       .  A
O82         Co97   2.027   1_554  S
C83         C205   1.474       .  S
C84         C195   1.485       .  S
C85         C165   1.487       .  S
C86         C152   1.483       .  S
O87         C100   1.297       .  A
O87         Co95   2.108   1_556  S
O88         C101   1.275       .  A
O88         Co96   2.038   1_556  S
O89         C102   1.251       .  A
O89         Co97   1.961       .  S
O90         C103   1.266       .  A
O90         Co98   1.971       .  S
O91         C103   1.277       .  A
O91         Co96   2.025   1_556  S
O92         C102   1.260       .  A
O92         Co95   2.009   1_556  S
O93         C100   1.264       .  A
O93         Co98   1.883       .  S
O94         C101   1.256       .  A
O94         Co97   1.949       .  S
Co95         O99   2.015   1_554  S
Co96         O99   2.023   1_554  S
Co97         O99   2.022       .  S
Co98         O99   2.008       .  S
C100        C172   1.484       .  S
C101        C185   1.489       .  S
C102        C142   1.466       .  S
C103        C132   1.467       .  S
C104        C162   1.487       .  S
C104        C105   1.403       .  A
C104        C689   1.404   1_455  A
C105        C686   1.399   1_455  A
C105        H110   1.083       .  S
C106        C107   1.403       .  A
C106        C685   1.399       .  A
C107        C108   1.406       .  A
C107        H111   1.083       .  S
C108        C155   1.489       .  S
C108        C109   1.407       .  A
C109        C684   1.404       .  A
C109        H112   1.084       .  S
C113        C145   1.472       .  S
C113        C114   1.398       .  A
C113        C118   1.398       .  A
C114        C115   1.401       .  A
C114        H119   1.084       .  S
C115        C406   1.406       .  A
C116        C117   1.408       .  A
C116        C405   1.406   1_545  A
C116        H120   1.083       .  S
C117        C135   1.489       .  S
C117        C408   1.406       .  A
C118        C407   1.406       .  A
C118        H121   1.084       .  S
C122        C182   1.492       .  S
C122        C127   1.405       .  A
C122        C703   1.406   1_455  A
C123        C124   1.408       .  A
C123        C702   1.406       .  A
C123        H128   1.083       .  S
C124        C175   1.489       .  S
C124        C125   1.405       .  A
C125        C126   1.402       .  A
C125        H129   1.083       .  S
C126        C707   1.400       .  A
C127        C706   1.400   1_455  A
C127        H130   1.083       .  S
C131        C132   1.403       .  A
C131        C136   1.406       .  A
C131        F138   1.357       .  S
C132        C133   1.400       .  A
C133        C134   1.391       .  A
C133        F140   1.357       .  S
C134        C135   1.409       .  A
C134        F139   1.358       .  S
C135        C136   1.413       .  A
C136        F137   1.357       .  S
C141        C142   1.405       .  A
C141        C146   1.394       .  A
C141        F148   1.358       .  S
C142        C143   1.402       .  A
C143        C144   1.402       .  A
C143        F150   1.357       .  S
C144        C145   1.407       .  A
C144        F149   1.357       .  S
C145        C146   1.401       .  A
C146        F147   1.358       .  S
C151        C152   1.408       .  A
C151        C156   1.393       .  A
C151        F158   1.358       .  S
C152        C153   1.409       .  A
C153        C154   1.404       .  A
C153        F160   1.358       .  S
C154        C155   1.410       .  A
C154        F159   1.358       .  S
C155        C156   1.408       .  A
C156        F157   1.358       .  S
C161        C162   1.405       .  A
C161        C166   1.395       .  A
C161        F168   1.358       .  S
C162        C163   1.410       .  A
C163        C164   1.401       .  A
C163        F170   1.358       .  S
C164        C165   1.408       .  A
C164        F169   1.358       .  S
C165        C166   1.414       .  A
C166        F167   1.358       .  S
C171        C172   1.409       .  A
C171        C176   1.393       .  A
C171        F178   1.358       .  S
C172        C173   1.408       .  A
C173        C174   1.405       .  A
C173        F180   1.357       .  S
C174        C175   1.410       .  A
C174        F179   1.358       .  S
C175        C176   1.407       .  A
C176        F177   1.358       .  S
C181        C182   1.412       .  A
C181        C186   1.402       .  A
C181        F188   1.357       .  S
C182        C183   1.406       .  A
C183        C184   1.394       .  A
C183        F190   1.358       .  S
C184        C185   1.413       .  A
C184        F189   1.358       .  S
C185        C186   1.408       .  A
C186        F187   1.358       .  S
C191        C192   1.403       .  A
C191        C196   1.393       .  A
C191        F198   1.359       .  S
C192        C193   1.407       .  A
C193        C194   1.403       .  A
C193        F200   1.358       .  S
C194        C195   1.409       .  A
C194        F199   1.357       .  S
C195        C196   1.412       .  A
C196        F197   1.358       .  S
C201        C202   1.402       .  A
C201        C206   1.397       .  A
C201        F208   1.358       .  S
C202        C203   1.405       .  A
C203        C204   1.403       .  A
C203        F210   1.357       .  S
C204        C205   1.406       .  A
C204        F209   1.358       .  S
C205        C206   1.407       .  A
C206        F207   1.358       .  S
C211        C212   1.410       .  A
C211        C216   1.400       .  A
C211        F218   1.358       .  S
C212        C606   1.484       .  S
C212        C793   1.411       .  A
C213        C214   1.399       .  A
C213        C792   1.411   1_455  A
C213        F220   1.358       .  S
C214        C795   1.403   1_455  A
C214        F219   1.358       .  S
C215        C216   1.403       .  A
C215        C794   1.403       .  A
C216        F217   1.358       .  S
C221        C222   1.405       .  A
C221        C226   1.394       .  A
C221        F228   1.358       .  S
C222        C803   1.403       .  A
C223        C224   1.403       .  A
C223        C802   1.403       .  A
C223        F230   1.357       .  S
C224        C805   1.407       .  A
C224        F229   1.357       .  S
C225        C226   1.401       .  A
C225        C804   1.407       .  A
C226        F227   1.358       .  S
C231        C236   1.403       .  A
C231        C812   1.405       .  A
C231        F238   1.357       .  S
C232        C592   1.470       .  S
C232        C233   1.407       .  A
C232        C811   1.405       .  A
C233        C234   1.394       .  A
C233        F240   1.359       .  S
C234        C235   1.400       .  A
C234        F239   1.358       .  S
C235        C816   1.406       .  A
C236        C815   1.406       .  A
C236        F237   1.357       .  S
C241        C246   1.401       .  A
C241        C822   1.404   1_455  A
C241        F248   1.358       .  S
C242        C243   1.403       .  A
C242        C821   1.404       .  A
C243        C244   1.398       .  A
C243        F250   1.358       .  S
C244        C245   1.412       .  A
C244        F249   1.358       .  S
C245        C826   1.412       .  A
C246        C825   1.412   1_455  A
C246        F247   1.358       .  S
C251        C252   1.407   1_545  A
C251        C256   1.404       .  A
C251        F258   1.357       .  S
C252        C543   1.408       .  A
C253        C254   1.393       .  A
C253        C542   1.408       .  A
C253        F260   1.358       .  S
C254        C255   1.407       .  A
C254        F259   1.358       .  S
C255        C546   1.410       .  A
C256        C545   1.410   1_545  A
C256        F257   1.358       .  S
C261        C266   1.395       .  A
C261        C552   1.405   1_545  A
C261        F268   1.358       .  S
C262        C263   1.411       .  A
C262        C551   1.405       .  A
C263        C264   1.401       .  A
C263        F270   1.358       .  S
C264        C265   1.408       .  A
C264        F269   1.358       .  S
C265        C556   1.414       .  A
C266        C555   1.414   1_545  A
C266        F267   1.358       .  S
C271        C276   1.404       .  A
C271        C562   1.408       .  A
C271        F278   1.358       .  S
C272        C273   1.408       .  A
C272        C561   1.408   1_545  A
C273        C274   1.393       .  A
C273        F280   1.358       .  S
C274        C565   1.407       .  A
C274        F279   1.358       .  S
C275        C276   1.409       .  A
C275        C564   1.407       .  A
C276        F277   1.358       .  S
C281        C286   1.402       .  A
C281        C572   1.408       .  A
C281        F288   1.358       .  S
C282        C283   1.414       .  A
C282        C571   1.408       .  A
C283        C284   1.395       .  A
C283        F290   1.358       .  S
C284        C285   1.405       .  A
C284        F289   1.358       .  S
C285        C576   1.410       .  A
C286        C575   1.410       .  A
C286        F287   1.358       .  S
O291        C299   1.256   1_565  A
O291       Co311   1.950       .  S
O292        C300   1.264       .  A
O292       Co312   1.882       .  S
O293        C301   1.277       .  A
O293       Co313   2.020       .  S
O294        C302   1.261       .  A
O294       Co314   2.010       .  S
O295        C881   1.269   1_455  A
O295       Co312   1.973       .  S
O296        C882   1.253       .  A
O296       Co311   1.963       .  S
O297       Co314   2.109       .  S
O298       Co313   2.038       .  S
C299        C572   1.488       .  S
C300        C562   1.482       .  S
C301        O875   1.269       .  A
C301        C535   1.489       .  S
C302        O876   1.253   1_455  A
C302       C1102   1.470       .  S
O303        C896   1.278       .  A
O303       Co311   2.023       .  S
O304        C897   1.261       .  A
O304       Co312   2.010       .  S
O305       Co313   1.951       .  S
O306       Co314   1.880       .  S
O307        C319   1.298       .  A
O307       Co312   2.112       .  S
O308        C318   1.274       .  A
O308       Co311   2.036       .  S
O309        C316   1.269   1_455  A
O309       Co314   1.970       .  S
O310        C317   1.253       .  A
O310       Co313   1.965       .  S
Co311       O315   2.023       .  S
Co312       O605   2.009   1_455  S
Co314       O895   2.009   1_455  S
O315       Co602   2.009   1_565  S
O315       Co894   2.009       .  S
C316        O883   1.278       .  A
C316       C1082   1.484       .  S
C317        O884   1.261       .  A
C317        C512   1.468       .  S
C318        C555   1.489       .  S
C319        C542   1.482       .  S
C320        C532   1.480       .  S
C320        C321   1.405       .  A
C320        C325   1.405       .  A
C321        C322   1.401       .  A
C321        H326   1.085       .  S
C322        C525   1.471       .  S
C322        C323   1.400       .  A
C323        C324   1.401       .  A
C323        H327   1.084       .  S
C324        C396   1.470       .  S
C324        C325   1.403       .  A
C325        H328   1.084       .  S
C329        C575   1.488       .  S
C329        C334   1.404       .  A
C330        H335   1.084       .  S
C331        C565   1.487       .  S
C331        C332   1.406   1_545  A
C332        C333   1.402       .  A
C332        H336   1.083       .  S
C333        C358   1.470       .  S
C333        C334   1.400   1_565  A
C334        H337   1.083       .  S
C338        C552   1.490       .  S
C338        C343   1.405       .  A
C339        H344   1.084       .  S
C340        C545   1.488       .  S
C340        C341   1.405   1_565  A
C341        C342   1.401   1_545  A
C341        H345   1.083       .  S
C342        C405   1.470       .  S
C342        C343   1.400       .  A
C343        H346   1.083       .  S
C347        C515   1.473       .  S
C347        C348   1.402       .  A
C347        C352   1.401       .  A
C348        C349   1.403       .  A
C348        H353   1.085       .  S
C349        C505   1.476       .  S
C349        C350   1.403       .  A
C350        C351   1.404       .  A
C350        H354   1.084       .  S
C351        C416   1.472       .  S
C351        C352   1.402       .  A
C352        H355   1.084       .  S
C356        C492   1.474       .  S
C356        C357   1.403       .  A
C356        C361   1.404       .  A
C357        C358   1.402       .  A
C357        H362   1.084       .  S
C359        C360   1.403       .  A
C359        H363   1.084       .  S
C360        C482   1.481       .  S
C361        H364   1.085       .  S
O365        C373   1.268       .  A
O365       Co385   1.966       .  S
O366        C374   1.253       .  A
O366       Co386   1.965       .  S
O367        C375   1.273       .  A
O367       Co387   2.032   1_554  S
O368        C376   1.296       .  A
O368       Co388   2.108   1_554  S
O369        C375   1.256       .  A
O369       Co386   1.952       .  S
O370        C376   1.264       .  A
O370       Co385   1.885       .  S
O371        C374   1.262       .  A
O371       Co388   2.014   1_554  S
O372        C373   1.279       .  A
O372       Co387   2.027   1_554  S
C373        C495   1.474       .  S
C374        C485   1.485       .  S
C375        C455   1.487       .  S
C376        C442   1.483       .  S
O377        C390   1.297       .  A
O377       Co385   2.108   1_556  S
O378        C391   1.275       .  A
O378       Co386   2.038   1_556  S
O379        C392   1.251       .  A
O379       Co387   1.961       .  S
O380        C393   1.266       .  A
O380       Co388   1.971       .  S
O381        C393   1.277       .  A
O381       Co386   2.025   1_556  S
O382        C392   1.260       .  A
O382       Co385   2.009   1_556  S
O383        C390   1.264       .  A
O383       Co388   1.883       .  S
O384        C391   1.256       .  A
O384       Co387   1.949       .  S
Co385       O389   2.015   1_554  S
Co386       O389   2.023   1_554  S
Co387       O389   2.022       .  S
Co388       O389   2.008       .  S
C390        C462   1.484       .  S
C391        C475   1.489       .  S
C392        C432   1.466       .  S
C393        C422   1.467       .  S
C394        C452   1.487       .  S
C394        C395   1.403       .  A
C394        C979   1.404   1_455  A
C395        C976   1.399   1_455  A
C395        H400   1.083       .  S
C396        C975   1.399       .  A
C396        C397   1.403       .  A
C397        C398   1.406       .  A
C397        H401   1.083       .  S
C398        C445   1.489       .  S
C398        C399   1.407       .  A
C399        C974   1.404       .  A
C399        H402   1.084       .  S
C403        C435   1.472       .  S
C403        C404   1.398       .  A
C403        C408   1.398   1_565  A
C404        C405   1.401       .  A
C404        H409   1.084       .  S
C406        C407   1.408       .  A
C406        H410   1.083       .  S
C407        C425   1.489       .  S
C408        H411   1.084       .  S
C412        C472   1.492       .  S
C412        C993   1.406   1_455  A
C412        C417   1.405       .  A
C413        C992   1.406       .  A
C413        C414   1.408       .  A
C413        H418   1.083       .  S
C414        C465   1.489       .  S
C414        C415   1.405       .  A
C415        C416   1.402       .  A
C415        H419   1.083       .  S
C416        C997   1.400       .  A
C417        C996   1.400   1_455  A
C417        H420   1.083       .  S
C421        C422   1.403       .  A
C421        C426   1.406       .  A
C421        F428   1.357       .  S
C422        C423   1.400       .  A
C423        C424   1.391       .  A
C423        F430   1.357       .  S
C424        C425   1.409       .  A
C424        F429   1.358       .  S
C425        C426   1.413       .  A
C426        F427   1.357       .  S
C431        C432   1.405       .  A
C431        C436   1.394       .  A
C431        F438   1.358       .  S
C432        C433   1.402       .  A
C433        C434   1.402       .  A
C433        F440   1.357       .  S
C434        C435   1.407       .  A
C434        F439   1.357       .  S
C435        C436   1.401       .  A
C436        F437   1.358       .  S
C441        C442   1.408       .  A
C441        C446   1.393       .  A
C441        F448   1.358       .  S
C442        C443   1.409       .  A
C443        C444   1.404       .  A
C443        F450   1.358       .  S
C444        C445   1.410       .  A
C444        F449   1.358       .  S
C445        C446   1.408       .  A
C446        F447   1.358       .  S
C451        C452   1.405       .  A
C451        C456   1.395       .  A
C451        F458   1.358       .  S
C452        C453   1.410       .  A
C453        C454   1.401       .  A
C453        F460   1.358       .  S
C454        C455   1.408       .  A
C454        F459   1.358       .  S
C455        C456   1.414       .  A
C456        F457   1.358       .  S
C461        C462   1.409       .  A
C461        C466   1.393       .  A
C461        F468   1.358       .  S
C462        C463   1.408       .  A
C463        C464   1.405       .  A
C463        F470   1.357       .  S
C464        C465   1.410       .  A
C464        F469   1.358       .  S
C465        C466   1.407       .  A
C466        F467   1.358       .  S
C471        C472   1.412       .  A
C471        C476   1.402       .  A
C471        F478   1.357       .  S
C472        C473   1.406       .  A
C473        C474   1.394       .  A
C473        F480   1.358       .  S
C474        C475   1.413       .  A
C474        F479   1.358       .  S
C475        C476   1.408       .  A
C476        F477   1.358       .  S
C481        C482   1.403       .  A
C481        C486   1.393       .  A
C481        F488   1.359       .  S
C482        C483   1.407       .  A
C483        C484   1.403       .  A
C483        F490   1.358       .  S
C484        C485   1.409       .  A
C484        F489   1.357       .  S
C485        C486   1.412       .  A
C486        F487   1.358       .  S
C491        C492   1.402       .  A
C491        C496   1.397       .  A
C491        F498   1.358       .  S
C492        C493   1.405       .  A
C493        C494   1.403       .  A
C493        F500   1.357       .  S
C494        C495   1.406       .  A
C494        F499   1.358       .  S
C495        C496   1.407       .  A
C496        F497   1.358       .  S
C501        C502   1.410       .  A
C501        C506   1.400       .  A
C501        F508   1.358       .  S
C502        C896   1.484       .  S
C502       C1083   1.411       .  A
C503       C1082   1.411   1_455  A
C503        C504   1.399       .  A
C503        F510   1.358       .  S
C504       C1085   1.403   1_455  A
C504        F509   1.358       .  S
C505       C1084   1.403       .  A
C505        C506   1.403       .  A
C506        F507   1.358       .  S
C511        C512   1.405       .  A
C511        C516   1.394       .  A
C511        F518   1.358       .  S
C512       C1093   1.403       .  A
C513       C1092   1.403       .  A
C513        C514   1.403       .  A
C513        F520   1.357       .  S
C514       C1095   1.407       .  A
C514        F519   1.357       .  S
C515       C1094   1.407       .  A
C515        C516   1.401       .  A
C516        F517   1.358       .  S
C521       C1102   1.405       .  A
C521        C526   1.403       .  A
C521        F528   1.357       .  S
C522        C882   1.470       .  S
C522       C1101   1.405       .  A
C522        C523   1.407       .  A
C523        C524   1.394       .  A
C523        F530   1.359       .  S
C524        C525   1.400       .  A
C524        F529   1.358       .  S
C525       C1106   1.406       .  A
C526       C1105   1.406       .  A
C526        F527   1.357       .  S
C531       C1112   1.404   1_455  A
C531        C536   1.401       .  A
C531        F538   1.358       .  S
C532       C1111   1.404       .  A
C532        C533   1.403       .  A
C533        C534   1.398       .  A
C533        F540   1.358       .  S
C534        C535   1.412       .  A
C534        F539   1.358       .  S
C535       C1116   1.412       .  A
C536       C1115   1.412   1_455  A
C536        F537   1.358       .  S
C541        C542   1.407       .  A
C541        C546   1.404       .  A
C541        F548   1.357       .  S
C543        C544   1.393       .  A
C543        F550   1.358       .  S
C544        C545   1.407       .  A
C544        F549   1.358       .  S
C546        F547   1.358       .  S
C551        C556   1.395       .  A
C551        F558   1.358       .  S
C552        C553   1.411       .  A
C553        C554   1.401       .  A
C553        F560   1.358       .  S
C554        C555   1.408       .  A
C554        F559   1.358       .  S
C556        F557   1.358       .  S
C561        C566   1.404       .  A
C561        F568   1.358       .  S
C562        C563   1.408       .  A
C563        C564   1.393       .  A
C563        F570   1.358       .  S
C564        F569   1.358       .  S
C565        C566   1.409   1_545  A
C566        F567   1.358       .  S
C571        C576   1.402       .  A
C571        F578   1.358       .  S
C572        C573   1.414   1_545  A
C573        C574   1.395       .  A
C573        F580   1.358       .  S
C574        C575   1.405   1_565  A
C574        F579   1.358       .  S
C576        F577   1.358       .  S
O581        C589   1.256       .  A
O581       Co601   1.950       .  S
O582        C590   1.264       .  A
O582       Co602   1.882       .  S
O583        C591   1.277       .  A
O583       Co603   2.020       .  S
O584        C592   1.261       .  A
O584       Co604   2.010       .  S
O585       Co602   1.973       .  S
O586       Co601   1.963       .  S
O587        C880   1.297       .  A
O587       Co604   2.109       .  S
O588        C879   1.275       .  A
O588       Co603   2.038       .  S
C589        O878   1.275       .  A
C589        C862   1.488       .  S
C590        O877   1.297   1_545  A
C590        C852   1.482       .  S
C591        C825   1.489       .  S
O593       Co601   2.023       .  S
O594       Co602   2.010       .  S
O595        C898   1.256   1_545  A
O595       Co603   1.951       .  S
O596        C899   1.264       .  A
O596       Co604   1.880       .  S
O597        C609   1.298   1_545  A
O597       Co602   2.112       .  S
O598        C608   1.274       .  A
O598       Co601   2.036       .  S
O599        C606   1.269       .  A
O599       Co604   1.970       .  S
O600        C607   1.253   1_655  A
O600       Co603   1.965       .  S
Co601       O605   2.023       .  S
Co603       O895   2.025   1_545  S
O605       Co893   2.025       .  S
C607        C802   1.468       .  S
C608        O885   1.256       .  A
C608        C845   1.489       .  S
C609        O886   1.264       .  A
C609        C832   1.482       .  S
C610        C822   1.480       .  S
C610        C611   1.405       .  A
C610        C615   1.405       .  A
C611        C612   1.401   1_655  A
C611        H616   1.085       .  S
C612        C815   1.471       .  S
C612        C613   1.400       .  A
C613        C614   1.401   1_455  A
C613        H617   1.084       .  S
C614        C686   1.470       .  S
C614        C615   1.403       .  A
C615        H618   1.084       .  S
C619        C865   1.488       .  S
C619        C910   1.404       .  A
C619        C624   1.404       .  A
C620        C909   1.404       .  A
C620        C911   1.408       .  A
C620        H625   1.084       .  S
C621        C855   1.487       .  S
C621        C910   1.408       .  A
C621        C622   1.406       .  A
C622        C623   1.402       .  A
C622        H626   1.083       .  S
C623        C648   1.470       .  S
C623        C624   1.400       .  A
C624        H627   1.083       .  S
C628        C842   1.490       .  S
C628        C919   1.405       .  A
C628        C633   1.405       .  A
C629        C918   1.405       .  A
C629        C920   1.407       .  A
C629        H634   1.084       .  S
C630        C835   1.488       .  S
C630        C919   1.407       .  A
C630        C631   1.405       .  A
C631        C632   1.401       .  A
C631        H635   1.083       .  S
C632        C695   1.470       .  S
C632        C633   1.400       .  A
C633        H636   1.083       .  S
C637        C805   1.473       .  S
C637        C638   1.402   1_455  A
C637        C642   1.401       .  A
C638        C639   1.403       .  A
C638        H643   1.085       .  S
C639        C795   1.476       .  S
C639        C640   1.403       .  A
C640        C641   1.404       .  A
C640        H644   1.084       .  S
C641        C706   1.472       .  S
C641        C642   1.402   1_655  A
C642        H645   1.084       .  S
C646        C782   1.474       .  S
C646        C647   1.403       .  A
C646        C651   1.404       .  A
C647        C648   1.402       .  A
C647        H652   1.084       .  S
C648        C939   1.399       .  A
C649        C938   1.399   1_545  A
C649        C650   1.403       .  A
C649        H653   1.084       .  S
C650        C772   1.481       .  S
C650        C941   1.404   1_545  A
C651        C940   1.404       .  A
C651        H654   1.085       .  S
O655        C663   1.268       .  A
O655       Co675   1.966       .  S
O656        C664   1.253       .  A
O656       Co676   1.965       .  S
O657        C665   1.273       .  A
O657       Co677   2.032   1_554  S
O658        C666   1.296       .  A
O658       Co678   2.108   1_554  S
O659        C665   1.256       .  A
O659       Co676   1.952       .  S
O660        C666   1.264       .  A
O660       Co675   1.885       .  S
O661        C664   1.262       .  A
O661       Co678   2.014   1_554  S
O662        C663   1.279       .  A
O662       Co677   2.027   1_554  S
C663        C785   1.474       .  S
C664        C775   1.485       .  S
C665        C745   1.487       .  S
C666        C732   1.483       .  S
O667        C680   1.297       .  A
O667       Co675   2.108   1_556  S
O668        C681   1.275       .  A
O668       Co676   2.038   1_556  S
O669        C682   1.251       .  A
O669       Co677   1.961       .  S
O670        C683   1.266       .  A
O670       Co678   1.971       .  S
O671        C683   1.277       .  A
O671       Co676   2.025   1_556  S
O672        C682   1.260       .  A
O672       Co675   2.009   1_556  S
O673        C680   1.264       .  A
O673       Co678   1.883       .  S
O674        C681   1.256       .  A
O674       Co677   1.949       .  S
Co675       O679   2.015   1_554  S
Co676       O679   2.023   1_554  S
Co677       O679   2.022       .  S
Co678       O679   2.008       .  S
C680        C752   1.484       .  S
C681        C765   1.489       .  S
C682        C722   1.466       .  S
C683        C712   1.467       .  S
C684        C742   1.487       .  S
C684        C685   1.403       .  A
C685        H690   1.083       .  S
C686        C687   1.403       .  A
C687        C688   1.406       .  A
C687        H691   1.083       .  S
C688        C735   1.489       .  S
C688        C689   1.407       .  A
C689        H692   1.084       .  S
C693        C725   1.472       .  S
C693        C694   1.398       .  A
C693        C698   1.398       .  A
C694        C695   1.401       .  A
C694        H699   1.084       .  S
C695        C986   1.406       .  A
C696        C985   1.406   1_545  A
C696        C697   1.408       .  A
C696        H700   1.083       .  S
C697        C715   1.489       .  S
C697        C988   1.406       .  A
C698        C987   1.406       .  A
C698        H701   1.084       .  S
C702        C762   1.492       .  S
C702        C707   1.405       .  A
C703        C704   1.408       .  A
C703        H708   1.083       .  S
C704        C755   1.489       .  S
C704        C705   1.405       .  A
C705        C706   1.402       .  A
C705        H709   1.083       .  S
C707        H710   1.083       .  S
C711        C712   1.403       .  A
C711        C716   1.406       .  A
C711        F718   1.357       .  S
C712        C713   1.400       .  A
C713        C714   1.391       .  A
C713        F720   1.357       .  S
C714        C715   1.409       .  A
C714        F719   1.358       .  S
C715        C716   1.413       .  A
C716        F717   1.357       .  S
C721        C722   1.405       .  A
C721        C726   1.394       .  A
C721        F728   1.358       .  S
C722        C723   1.402       .  A
C723        C724   1.402       .  A
C723        F730   1.357       .  S
C724        C725   1.407       .  A
C724        F729   1.357       .  S
C725        C726   1.401       .  A
C726        F727   1.358       .  S
C731        C732   1.408       .  A
C731        C736   1.393       .  A
C731        F738   1.358       .  S
C732        C733   1.409       .  A
C733        C734   1.404       .  A
C733        F740   1.358       .  S
C734        C735   1.410       .  A
C734        F739   1.358       .  S
C735        C736   1.408       .  A
C736        F737   1.358       .  S
C741        C742   1.405       .  A
C741        C746   1.395       .  A
C741        F748   1.358       .  S
C742        C743   1.410       .  A
C743        C744   1.401       .  A
C743        F750   1.358       .  S
C744        C745   1.408       .  A
C744        F749   1.358       .  S
C745        C746   1.414       .  A
C746        F747   1.358       .  S
C751        C752   1.409       .  A
C751        C756   1.393       .  A
C751        F758   1.358       .  S
C752        C753   1.408       .  A
C753        C754   1.405       .  A
C753        F760   1.357       .  S
C754        C755   1.410       .  A
C754        F759   1.358       .  S
C755        C756   1.407       .  A
C756        F757   1.358       .  S
C761        C762   1.412       .  A
C761        C766   1.402       .  A
C761        F768   1.357       .  S
C762        C763   1.406       .  A
C763        C764   1.394       .  A
C763        F770   1.358       .  S
C764        C765   1.413       .  A
C764        F769   1.358       .  S
C765        C766   1.408       .  A
C766        F767   1.358       .  S
C771        C772   1.403       .  A
C771        C776   1.393       .  A
C771        F778   1.359       .  S
C772        C773   1.407       .  A
C773        C774   1.403       .  A
C773        F780   1.358       .  S
C774        C775   1.409       .  A
C774        F779   1.357       .  S
C775        C776   1.412       .  A
C776        F777   1.358       .  S
C781        C782   1.402       .  A
C781        C786   1.397       .  A
C781        F788   1.358       .  S
C782        C783   1.405       .  A
C783        C784   1.403       .  A
C783        F790   1.357       .  S
C784        C785   1.406       .  A
C784        F789   1.358       .  S
C785        C786   1.407       .  A
C786        F787   1.358       .  S
C791        C792   1.410       .  A
C791        C796   1.400       .  A
C791        F798   1.358       .  S
C793        C794   1.399       .  A
C793        F800   1.358       .  S
C794        F799   1.358       .  S
C795        C796   1.403       .  A
C796        F797   1.358       .  S
C801        C802   1.405   1_655  A
C801        C806   1.394       .  A
C801        F808   1.358       .  S
C803        C804   1.403       .  A
C803        F810   1.357       .  S
C804        F809   1.357       .  S
C805        C806   1.401   1_455  A
C806        F807   1.358       .  S
C811        C816   1.403       .  A
C811        F818   1.357       .  S
C812        C813   1.407   1_455  A
C813        C814   1.394       .  A
C813        F820   1.359       .  S
C814        C815   1.400   1_655  A
C814        F819   1.358       .  S
C816        F817   1.357       .  S
C821        C826   1.401       .  A
C821        F828   1.358       .  S
C822        C823   1.403       .  A
C823        C824   1.398       .  A
C823        F830   1.358       .  S
C824        C825   1.412       .  A
C824        F829   1.358       .  S
C826        F827   1.358       .  S
C831        C832   1.407   1_545  A
C831        C836   1.404       .  A
C831        F838   1.357       .  S
C832       C1123   1.408       .  A
C833       C1122   1.408       .  A
C833        C834   1.393       .  A
C833        F840   1.358       .  S
C834        C835   1.407       .  A
C834        F839   1.358       .  S
C835       C1126   1.410       .  A
C836       C1125   1.410   1_545  A
C836        F837   1.358       .  S
C841       C1132   1.405   1_545  A
C841        C846   1.395       .  A
C841        F848   1.358       .  S
C842       C1131   1.405       .  A
C842        C843   1.411       .  A
C843        C844   1.401       .  A
C843        F850   1.358       .  S
C844        C845   1.408       .  A
C844        F849   1.358       .  S
C845       C1136   1.414       .  A
C846       C1135   1.414   1_545  A
C846        F847   1.358       .  S
C851       C1142   1.408       .  A
C851        C856   1.404       .  A
C851        F858   1.358       .  S
C852       C1141   1.408   1_545  A
C852        C853   1.408       .  A
C853        C854   1.393       .  A
C853        F860   1.358       .  S
C854       C1145   1.407       .  A
C854        F859   1.358       .  S
C855       C1144   1.407       .  A
C855        C856   1.409       .  A
C856        F857   1.358       .  S
C861       C1152   1.408       .  A
C861        C866   1.402       .  A
C861        F868   1.358       .  S
C862       C1151   1.408       .  A
C862        C863   1.414       .  A
C863        C864   1.395       .  A
C863        F870   1.358       .  S
C864        C865   1.405       .  A
C864        F869   1.358       .  S
C865       C1156   1.410       .  A
C866       C1155   1.410       .  A
C866        F867   1.358       .  S
O871        C879   1.256   1_565  A
O871       Co891   1.950       .  S
O872        C880   1.264       .  A
O872       Co892   1.882       .  S
O873        C881   1.277       .  A
O873       Co893   2.020       .  S
O874        C882   1.261       .  A
O874       Co894   2.010       .  S
O875       Co892   1.973       .  S
O876       Co891   1.963       .  S
O877       Co894   2.109       .  S
O878       Co893   2.038       .  S
C879       C1152   1.488       .  S
C880       C1142   1.482       .  S
C881       C1115   1.489       .  S
O883       Co891   2.023       .  S
O884       Co892   2.010       .  S
O885       Co893   1.951       .  S
O886       Co894   1.880       .  S
O887        C899   1.298       .  A
O887       Co892   2.112       .  S
O888        C898   1.274       .  A
O888       Co891   2.036       .  S
O889        C896   1.269       .  A
O889       Co894   1.970       .  S
O890        C897   1.253   1_655  A
O890       Co893   1.965       .  S
Co891       O895   2.023       .  S
C897       C1092   1.468       .  S
C898       C1135   1.489       .  S
C899       C1122   1.482       .  S
C900       C1112   1.480       .  S
C900        C901   1.405       .  A
C900        C905   1.405       .  A
C901        C902   1.401   1_655  A
C901        H906   1.085       .  S
C902       C1105   1.471       .  S
C902        C903   1.400       .  A
C903        C904   1.401   1_455  A
C903        H907   1.084       .  S
C904        C976   1.470       .  S
C904        C905   1.403       .  A
C905        H908   1.084       .  S
C909       C1155   1.488       .  S
C909        C914   1.404       .  A
C910        H915   1.084       .  S
C911       C1145   1.487       .  S
C911        C912   1.406   1_545  A
C912        C913   1.402       .  A
C912        H916   1.083       .  S
C913        C938   1.470       .  S
C913        C914   1.400   1_565  A
C914        H917   1.083       .  S
C918       C1132   1.490       .  S
C918        C923   1.405       .  A
C919        H924   1.084       .  S
C920       C1125   1.488       .  S
C920        C921   1.405   1_565  A
C921        C922   1.401   1_545  A
C921        H925   1.083       .  S
C922        C985   1.470       .  S
C922        C923   1.400       .  A
C923        H926   1.083       .  S
C927       C1095   1.473       .  S
C927        C928   1.402   1_455  A
C927        C932   1.401       .  A
C928        C929   1.403       .  A
C928        H933   1.085       .  S
C929       C1085   1.476       .  S
C929        C930   1.403       .  A
C930        C931   1.404       .  A
C930        H934   1.084       .  S
C931        C996   1.472       .  S
C931        C932   1.402   1_655  A
C932        H935   1.084       .  S
C936       C1072   1.474       .  S
C936        C937   1.403       .  A
C936        C941   1.404       .  A
C937        C938   1.402       .  A
C937        H942   1.084       .  S
C939        C940   1.403       .  A
C939        H943   1.084       .  S
C940       C1062   1.481       .  S
C941        H944   1.085       .  S
O945        C953   1.268       .  A
O945       Co965   1.966       .  S
O946        C954   1.253       .  A
O946       Co966   1.965       .  S
O947        C955   1.273       .  A
O947       Co967   2.032   1_554  S
O948        C956   1.296       .  A
O948       Co968   2.108   1_554  S
O949        C955   1.256       .  A
O949       Co966   1.952       .  S
O950        C956   1.264       .  A
O950       Co965   1.885       .  S
O951        C954   1.262       .  A
O951       Co968   2.014   1_554  S
O952        C953   1.279       .  A
O952       Co967   2.027   1_554  S
C953       C1075   1.474       .  S
C954       C1065   1.485       .  S
C955       C1035   1.487       .  S
C956       C1022   1.483       .  S
O957        C970   1.297       .  A
O957       Co965   2.108   1_556  S
O958        C971   1.275       .  A
O958       Co966   2.038   1_556  S
O959        C972   1.251       .  A
O959       Co967   1.961       .  S
O960        C973   1.266       .  A
O960       Co968   1.971       .  S
O961        C973   1.277       .  A
O961       Co966   2.025   1_556  S
O962        C972   1.260       .  A
O962       Co965   2.009   1_556  S
O963        C970   1.264       .  A
O963       Co968   1.883       .  S
O964        C971   1.256       .  A
O964       Co967   1.949       .  S
Co965       O969   2.015   1_554  S
Co966       O969   2.023   1_554  S
Co967       O969   2.022       .  S
Co968       O969   2.008       .  S
C970       C1042   1.484       .  S
C971       C1055   1.489       .  S
C972       C1012   1.466       .  S
C973       C1002   1.467       .  S
C974       C1032   1.487       .  S
C974        C975   1.403       .  A
C975        H980   1.083       .  S
C976        C977   1.403       .  A
C977        C978   1.406       .  A
C977        H981   1.083       .  S
C978       C1025   1.489       .  S
C978        C979   1.407       .  A
C979        H982   1.084       .  S
C983       C1015   1.472       .  S
C983        C984   1.398       .  A
C983        C988   1.398   1_565  A
C984        C985   1.401       .  A
C984        H989   1.084       .  S
C986        C987   1.408       .  A
C986        H990   1.083       .  S
C987       C1005   1.489       .  S
C988        H991   1.084       .  S
C992       C1052   1.492       .  S
C992        C997   1.405       .  A
C993        C994   1.408       .  A
C993        H998   1.083       .  S
C994       C1045   1.489       .  S
C994        C995   1.405       .  A
C995        C996   1.402       .  A
C995        H999   1.083       .  S
C997       H1000   1.083       .  S
C1001      C1002   1.403       .  A
C1001      C1006   1.406       .  A
C1001      F1008   1.357       .  S
C1002      C1003   1.400       .  A
C1003      C1004   1.391       .  A
C1003      F1010   1.357       .  S
C1004      C1005   1.409       .  A
C1004      F1009   1.358       .  S
C1005      C1006   1.413       .  A
C1006      F1007   1.357       .  S
C1011      C1012   1.405       .  A
C1011      C1016   1.394       .  A
C1011      F1018   1.358       .  S
C1012      C1013   1.402       .  A
C1013      C1014   1.402       .  A
C1013      F1020   1.357       .  S
C1014      C1015   1.407       .  A
C1014      F1019   1.357       .  S
C1015      C1016   1.401       .  A
C1016      F1017   1.358       .  S
C1021      C1022   1.408       .  A
C1021      C1026   1.393       .  A
C1021      F1028   1.358       .  S
C1022      C1023   1.409       .  A
C1023      C1024   1.404       .  A
C1023      F1030   1.358       .  S
C1024      C1025   1.410       .  A
C1024      F1029   1.358       .  S
C1025      C1026   1.408       .  A
C1026      F1027   1.358       .  S
C1031      C1032   1.405       .  A
C1031      C1036   1.395       .  A
C1031      F1038   1.358       .  S
C1032      C1033   1.410       .  A
C1033      C1034   1.401       .  A
C1033      F1040   1.358       .  S
C1034      C1035   1.408       .  A
C1034      F1039   1.358       .  S
C1035      C1036   1.414       .  A
C1036      F1037   1.358       .  S
C1041      C1042   1.409       .  A
C1041      C1046   1.393       .  A
C1041      F1048   1.358       .  S
C1042      C1043   1.408       .  A
C1043      C1044   1.405       .  A
C1043      F1050   1.357       .  S
C1044      C1045   1.410       .  A
C1044      F1049   1.358       .  S
C1045      C1046   1.407       .  A
C1046      F1047   1.358       .  S
C1051      C1052   1.412       .  A
C1051      C1056   1.402       .  A
C1051      F1058   1.357       .  S
C1052      C1053   1.406       .  A
C1053      C1054   1.394       .  A
C1053      F1060   1.358       .  S
C1054      C1055   1.413       .  A
C1054      F1059   1.358       .  S
C1055      C1056   1.408       .  A
C1056      F1057   1.358       .  S
C1061      C1062   1.403       .  A
C1061      C1066   1.393       .  A
C1061      F1068   1.359       .  S
C1062      C1063   1.407       .  A
C1063      C1064   1.403       .  A
C1063      F1070   1.358       .  S
C1064      C1065   1.409       .  A
C1064      F1069   1.357       .  S
C1065      C1066   1.412       .  A
C1066      F1067   1.358       .  S
C1071      C1072   1.402       .  A
C1071      C1076   1.397       .  A
C1071      F1078   1.358       .  S
C1072      C1073   1.405       .  A
C1073      C1074   1.403       .  A
C1073      F1080   1.357       .  S
C1074      C1075   1.406       .  A
C1074      F1079   1.358       .  S
C1075      C1076   1.407       .  A
C1076      F1077   1.358       .  S
C1081      C1082   1.410       .  A
C1081      C1086   1.400       .  A
C1081      F1088   1.358       .  S
C1083      C1084   1.399       .  A
C1083      F1090   1.358       .  S
C1084      F1089   1.358       .  S
C1085      C1086   1.403       .  A
C1086      F1087   1.358       .  S
C1091      C1092   1.405   1_655  A
C1091      C1096   1.394       .  A
C1091      F1098   1.358       .  S
C1093      C1094   1.403       .  A
C1093      F1100   1.357       .  S
C1094      F1099   1.357       .  S
C1095      C1096   1.401   1_455  A
C1096      F1097   1.358       .  S
C1101      C1106   1.403       .  A
C1101      F1108   1.357       .  S
C1102      C1103   1.407   1_455  A
C1103      C1104   1.394       .  A
C1103      F1110   1.359       .  S
C1104      C1105   1.400   1_655  A
C1104      F1109   1.358       .  S
C1106      F1107   1.357       .  S
C1111      C1116   1.401       .  A
C1111      F1118   1.358       .  S
C1112      C1113   1.403       .  A
C1113      C1114   1.398       .  A
C1113      F1120   1.358       .  S
C1114      C1115   1.412       .  A
C1114      F1119   1.358       .  S
C1116      F1117   1.358       .  S
C1121      C1122   1.407       .  A
C1121      C1126   1.404       .  A
C1121      F1128   1.357       .  S
C1123      C1124   1.393       .  A
C1123      F1130   1.358       .  S
C1124      C1125   1.407       .  A
C1124      F1129   1.358       .  S
C1126      F1127   1.358       .  S
C1131      C1136   1.395       .  A
C1131      F1138   1.358       .  S
C1132      C1133   1.411       .  A
C1133      C1134   1.401       .  A
C1133      F1140   1.358       .  S
C1134      C1135   1.408       .  A
C1134      F1139   1.358       .  S
C1136      F1137   1.358       .  S
C1141      C1146   1.404       .  A
C1141      F1148   1.358       .  S
C1142      C1143   1.408       .  A
C1143      C1144   1.393       .  A
C1143      F1150   1.358       .  S
C1144      F1149   1.358       .  S
C1145      C1146   1.409   1_545  A
C1146      F1147   1.358       .  S
C1151      C1156   1.402       .  A
C1151      F1158   1.358       .  S
C1152      C1153   1.414   1_545  A
C1153      C1154   1.395       .  A
C1153      F1160   1.358       .  S
C1154      C1155   1.405   1_565  A
C1154      F1159   1.358       .  S
C1156      F1157   1.358       .  S
