geometry optimzed in LAMMPS
_audit_creation_date              2020-11-30 
_audit_creation_method            'lammps2cif' 
_symmetry_space_group_name_H-M    'P1' 
_symmetry_Int_Tables_number       1 
_symmetry_cell_setting            triclinic 
loop_ 
_symmetry_equiv_pos_as_xyz 
  x,y,z 
_cell_length_a                    48.46080156 
_cell_length_b                    44.76556784172781 
_cell_length_c                    26.928120264733998 
_cell_angle_alpha                 94.28429657523546 
_cell_angle_beta                  85.24496230155724 
_cell_angle_gamma                 85.43306697031014 
loop_ 
_atom_site_label 
_atom_site_type_symbol 
_atom_site_fract_x 
_atom_site_fract_y 
_atom_site_fract_z 
_atom_site_charge 
O1          O  0.02457716  0.25360345  0.42579518    -0.75100
O2          O  0.02443737  0.24870213  0.07066826    -0.75200
O3          O  0.02722301  0.20745863  0.98988978    -0.75200
O4          O  0.02164233  0.29493862  0.50759368    -0.75300
O5          O  0.47552470  0.29548657  0.51456212    -0.75200
O6          O  0.48100551  0.20870682  0.99617689    -0.75200
O7          O  0.47830940  0.24974573  0.07740674    -0.75100
O8          O  0.47846667  0.25453369  0.43276830    -0.75200
Ni9        Ni  0.02635876  0.25185256  0.49809988     1.25400
Ni10       Ni  0.47665056  0.25168216  0.00531194     1.25400
C11         C  0.50149516  0.25427494  0.40507206     0.87100
C12         C  0.50137392  0.24860484  0.09809737     0.87000
C13         C  0.00491606  0.19388695  0.99027780     0.87000
C14         C  0.99754731  0.30945223  0.51401717     0.87200
O15         O  0.02444010  0.24562694  0.17480352    -0.75100
O16         O  0.02451057  0.25143800  0.32050714    -0.75200
O17         O  0.02444866  0.20533834  0.24790759    -0.75200
O18         O  0.02443870  0.29130435  0.24678821    -0.75300
O19         O  0.47820990  0.29604507  0.25471239    -0.75200
O20         O  0.47821728  0.20976339  0.25450445    -0.75200
O21         O  0.47830835  0.25553493  0.32797002    -0.75100
O22         O  0.47822220  0.25036783  0.18220293    -0.75200
Ni23       Ni  0.02604402  0.24825062  0.24735487     1.25400
Ni24       Ni  0.47663032  0.25305672  0.25525219     1.25400
C25         C  0.50134378  0.24792018  0.15432852     0.87100
C26         C  0.50143241  0.25396521  0.34852559     0.87000
C27         C  0.50129800  0.19326929  0.25159857     0.87000
C28         C  0.50143309  0.30774012  0.24804778     0.87200
O29         O  0.07528409  0.47129836  0.47397177    -0.81600
O30         O  0.44095331  0.49111811  0.47468025    -0.66300
O31         O  0.01939390  0.99874049  0.46345617    -1.12900
C32         C  0.99934943  0.02144403  0.11873105     1.05300
O33         O  0.42622691  0.03190939  0.02675837    -0.79500
O34         O  0.47194218  0.06351961  0.02035848    -0.67100
Ni35       Ni  0.04476751  0.46316145  0.43592745     1.34900
C36         C  0.49738771  0.06859713  0.01271337     0.84000
O37         O  0.47862798  0.47985397  0.39997675    -0.80000
O38         O  0.01693883  0.45286710  0.39460778    -0.90300
C39         C  0.42128292  0.01152039  0.49428317     0.83600
O40         O  0.03004219  0.43951670  0.48613607    -0.68500
O41         O  0.48535478  0.04466277  0.10842500    -0.87800
C42         C  0.00470910  0.43442655  0.49541916     0.84400
C43         C  0.50285796  0.47502216  0.38092555     1.06000
H44         H  0.47663666  0.48673973  0.05148475     0.37800
O45         O  0.48172874  0.50437647  0.03591374    -1.10400
O46         O  0.01743570  0.04944030  0.01939529    -0.67100
Ni47       Ni  0.02080862  0.00678783  0.02946155     1.26300
O48         O  0.48431610  0.45203676  0.48453987    -0.67300
O49         O  0.02335923  0.01642548  0.09810308    -0.79600
C50         C  0.08001302  0.49248655  0.00012455     0.83800
O51         O  0.06013816  0.00918828  0.02116045    -0.66800
Ni52       Ni  0.45694273  0.03735157  0.06641374     1.27400
Ni53       Ni  0.48024389  0.49364291  0.46742670     1.26100
H54         H  0.02436623  0.01659436  0.44835953     0.38400
O55         O  0.07158684  0.47823086  0.18430026    -0.81600
O56         O  0.43826910  0.49176527  0.24533374    -0.66300
O57         O  0.01406443  0.00476623  0.20954861    -1.12900
C58         C  0.01363153  0.00441746  0.36674611     1.05300
O59         O  0.42889621  0.02410633  0.31059173    -0.79500
O60         O  0.47305075  0.05844625  0.29662240    -0.67100
Ni61       Ni  0.03503740  0.47604809  0.16020718     1.34900
C62         C  0.49725084  0.06616636  0.28390061     0.84000
O63         O  0.46485928  0.50241925  0.16219125    -0.80000
O64         O  0.00052081  0.47336703  0.13348609    -0.90300
C65         C  0.42027852  0.00717103  0.27593882     0.83600
O66         O  0.02774798  0.44345922  0.20027804    -0.68500
O67         O  0.49891736  0.02903659  0.36643638    -0.87800
C68         C  0.00381094  0.43523760  0.21375665     0.84400
C69         C  0.48641556  0.49829870  0.13368293     1.06000
H70         H  0.48483573  0.47491658  0.29892468     0.37800
O71         O  0.48702071  0.49514182  0.29032621    -1.10400
O72         O  0.01902703  0.04772417  0.28220169    -0.67100
Ni73       Ni  0.02486502  0.00358173  0.27369224     1.26300
O74         O  0.48179477  0.45348443  0.21636409    -0.67300
O75         O  0.03548581  0.00083401  0.33896987    -0.79600
C76         C  0.08059022  0.49373829  0.22024476     0.83800
O77         O  0.06273037  0.00944437  0.25523648    -0.66800
Ni78       Ni  0.46487210  0.02628809  0.33743528     1.27400
Ni79       Ni  0.47595223  0.49778592  0.22677921     1.26100
H80         H  0.01611603  0.02496937  0.20045676     0.38400
O81         O  0.25281544  0.47588181  0.42109339    -0.75100
O82         O  0.25508262  0.47596495  0.06621410    -0.75200
O83         O  0.21356660  0.47557139  0.00295871    -0.75200
O84         O  0.29288154  0.47600825  0.98485157    -0.75300
O85         O  0.28780178  0.02817932  0.48685000    -0.75200
O86         O  0.20868395  0.02678964  0.50358408    -0.75200
O87         O  0.24820398  0.02872578  0.06724178    -0.75100
O88         O  0.24673110  0.02777529  0.42272381    -0.75200
Ni89       Ni  0.25334143  0.47394020  0.99367453     1.25400
Ni90       Ni  0.24805938  0.02925790  0.49534799     1.25400
C91         C  0.24963983  0.50085011  0.40052202     0.87100
C92         C  0.25341804  0.50102774  0.09355846     0.87000
C93         C  0.19812980  0.50046115  0.00852557     0.87000
C94         C  0.30465195  0.50214649  0.48595219     0.87200
O95         O  0.25641215  0.47605446  0.17060947    -0.75100
O96         O  0.25145066  0.47582234  0.31644733    -0.75200
O97         O  0.21428272  0.47483324  0.24330104    -0.75200
O98         O  0.29351493  0.47693307  0.24349733    -0.75300
O99         O  0.28739091  0.02941033  0.24501366    -0.75200
O100        O  0.20811396  0.02797701  0.24579370    -0.75200
O101        O  0.24552318  0.02824515  0.31813348    -0.75100
O102        O  0.24995804  0.02887172  0.17223413    -0.75200
Ni103      Ni  0.25408353  0.47417599  0.24323436     1.25400
Ni104      Ni  0.24759540  0.03036259  0.24549815     1.25400
C105        C  0.25401702  0.50107213  0.14992869     0.87100
C106        C  0.24884055  0.50080822  0.34420573     0.87000
C107        C  0.19866712  0.49950515  0.24532195     0.87000
C108        C  0.30396698  0.50227517  0.24892997     0.87200
C109        C  0.15943488  0.47386654  0.21114937    -0.09800
C110        C  0.16836482  0.49852543  0.23925923     0.06300
C111        C  0.14691404  0.02534610  0.25553866    -0.03600
C112        C  0.11868477  0.02275493  0.24970317    -0.08100
C113        C  0.11112807  0.49520507  0.22348845     0.05500
C114        C  0.13134683  0.47207364  0.20281891    -0.03100
Br115      Br  0.12229917  0.43670108  0.16475509    -0.02800
H116        H  0.17448533  0.45583092  0.19502814     0.09400
H117        H  0.10365038  0.04077306  0.26598167     0.07400
Br118      Br  0.15599747  0.06143277  0.29145950    -0.03200
C119        C  0.38249839  0.48280599  0.24073137    -0.09800
C120        C  0.38980689  0.00666074  0.26961709     0.06300
C121        C  0.36898724  0.02747532  0.29562492    -0.03600
C122        C  0.34113920  0.02669825  0.28505939    -0.08100
C123        C  0.33299897  0.00543166  0.24928340     0.05500
C124        C  0.35456349  0.48158789  0.23134293    -0.03100
Br125      Br  0.34609433  0.45097842  0.18244710    -0.02800
H126        H  0.39765095  0.46601703  0.22103823     0.09400
H127        H  0.32556270  0.04263023  0.30575918     0.07400
Br128      Br  0.37641876  0.05800034  0.34555578    -0.03200
C129        C  0.11787320  0.02220544  0.01038414    -0.09800
C130        C  0.10953295  0.49475381  0.00886027     0.06300
C131        C  0.12871990  0.46858031  0.51419766    -0.03600
C132        C  0.15722156  0.47125484  0.51428350    -0.08100
C133        C  0.16731885  0.49977985  0.01238883     0.05500
C134        C  0.14630077  0.02576357  0.01156229    -0.03100
Br135      Br  0.15619435  0.06640776  0.02035791    -0.02800
H136        H  0.10330113  0.04203291  0.01292377     0.09400
H137        H  0.17093190  0.45089559  0.51386628     0.07400
Br138      Br  0.11673578  0.42866639  0.51363331    -0.03200
C139        C  0.38327121  0.48134009  0.47879352    -0.09800
C140        C  0.39187100  0.00966222  0.48389192     0.06300
C141        C  0.37218999  0.03580956  0.98803305    -0.03600
C142        C  0.34382612  0.03359227  0.98421534    -0.08100
C143        C  0.33423261  0.00448525  0.47765848     0.05500
C144        C  0.35481391  0.47789123  0.47834340    -0.03100
Br145      Br  0.34460669  0.43726379  0.47648710    -0.02800
H146        H  0.39755578  0.46146080  0.47897122     0.09400
H147        H  0.33022727  0.05416211  0.98693541     0.07400
Br148      Br  0.38459400  0.07558954  0.99308561    -0.03200
C149        C  0.48057869  0.36142648  0.26261473    -0.09800
C150        C  0.50181137  0.34036977  0.23969023     0.06300
C151        C  0.02258156  0.35078597  0.20693872    -0.03600
C152        C  0.02279131  0.38149147  0.20028284    -0.08100
C153        C  0.00193148  0.40282327  0.22365568     0.05500
C154        C  0.48031390  0.39224956  0.25471037    -0.03100
Br155      Br  0.45025294  0.41839714  0.28887152    -0.02800
H156        H  0.46411383  0.35390499  0.28710194     0.09400
H157        H  0.03920324  0.38858450  0.17525940     0.07400
Br158      Br  0.04974934  0.32413392  0.16575116    -0.03200
C159        C  0.47939052  0.11277976  0.24665128    -0.09800
C160        C  0.50002121  0.09796479  0.27200666     0.06300
C161        C  0.02218758  0.11431487  0.28683259    -0.03600
C162        C  0.02253468  0.14491955  0.27851891    -0.08100
C163        C  0.50132176  0.16003775  0.25494038     0.05500
C164        C  0.48011797  0.14321123  0.23731374    -0.03100
Br165      Br  0.45267533  0.15985665  0.19728123    -0.02800
H166        H  0.46267062  0.10049348  0.23349515     0.09400
H167        H  0.03914593  0.15721580  0.29207504     0.07400
Br168      Br  0.05168041  0.09695513  0.32178760    -0.03200
C169        C  0.47581458  0.39125148  0.49804935    -0.09800
C170        C  0.99894412  0.40504080  0.51392505     0.06300
C171        C  0.01836891  0.38825364  0.53933483    -0.03600
C172        C  0.01686949  0.35726254  0.54096989    -0.08100
C173        C  0.99547318  0.34275504  0.51966841     0.05500
C174        C  0.47373387  0.36047469  0.50117304    -0.03100
Br175      Br  0.44197468  0.34414806  0.47477668    -0.02800
H176        H  0.46020783  0.40393061  0.47969487     0.09400
H177        H  0.03277144  0.34389494  0.05663057     0.07400
Br178      Br  0.04694298  0.40636207  0.06936009    -0.03200
C179        C  0.48541117  0.11404852  0.96895558    -0.09800
C180        C  0.50354307  0.09882038  0.99848643     0.06300
C181        C  0.02491394  0.11430162  0.01881182    -0.03600
C182        C  0.02622246  0.14495577  0.01263128    -0.08100
C183        C  0.50653598  0.16067271  0.98670748     0.05500
C184        C  0.48688254  0.14459607  0.96261984    -0.03100
Br185      Br  0.46169501  0.16307288  0.92025994    -0.02800
H186        H  0.46940684  0.10233234  0.95193721     0.09400
H187        H  0.04158927  0.15697010  0.03102444     0.07400
Br188      Br  0.05092440  0.09624124  0.06033783    -0.03200
O189        O  0.02435062  0.25230066  0.92593641    -0.75100
O190        O  0.02483827  0.24981048  0.57071069    -0.75200
O191        O  0.02786639  0.20889297  0.48939322    -0.75200
O192        O  0.02156380  0.29371620  0.00727546    -0.75300
O193        O  0.47542219  0.29462920  0.01398845    -0.75200
O194        O  0.48164432  0.20974007  0.49563559    -0.75200
O195        O  0.47874233  0.25042383  0.57742336    -0.75100
O196        O  0.47821767  0.25355105  0.93271573    -0.75200
Ni197      Ni  0.02601391  0.25054772  0.99816345     1.25400
Ni198      Ni  0.47701154  0.25258357  0.50534788     1.25400
C199        C  0.50129242  0.25338113  0.90518113     0.87100
C200        C  0.50179350  0.24943375  0.59816377     0.87000
C201        C  0.00566125  0.19520708  0.48932492     0.87000
C202        C  0.99755026  0.30843732  0.01314558     0.87200
O203        O  0.02473882  0.24594183  0.67511270    -0.75100
O204        O  0.02448091  0.25080053  0.82088507    -0.75200
O205        O  0.02366868  0.20515046  0.74796062    -0.75200
O206        O  0.02531975  0.29130548  0.74792418    -0.75300
O207        O  0.47923782  0.29680988  0.75498963    -0.75200
O208        O  0.47752270  0.21082477  0.75521154    -0.75200
O209        O  0.47829497  0.25626627  0.82816183    -0.75100
O210        O  0.47854770  0.25126994  0.68233243    -0.75200
Ni211      Ni  0.02614898  0.24809552  0.74776590     1.25400
Ni212      Ni  0.47681792  0.25397105  0.75547245     1.25400
C213        C  0.50169993  0.24860142  0.65449678     0.87100
C214        C  0.50135264  0.25372033  0.84877026     0.87000
C215        C  0.50019458  0.19369340  0.75249124     0.87000
C216        C  0.50262702  0.30833888  0.74961151     0.87200
O217        O  0.07443597  0.47185425  0.96847569    -0.81600
O218        O  0.43971032  0.48986767  0.97829300    -0.66300
O219        O  0.01744461  0.99750987  0.96174933    -1.12900
C220        C  0.99872467  0.02561720  0.61871455     1.05300
O221        O  0.42709277  0.03350295  0.52304440    -0.79500
O222        O  0.47249187  0.06549734  0.51726567    -0.67100
Ni223      Ni  0.04306837  0.46409594  0.93203232     1.34900
C224        C  0.49797988  0.07048489  0.51018139     0.84000
O225        O  0.47577862  0.48139215  0.90128633    -0.80000
O226        O  0.01425875  0.45447180  0.89236177    -0.90300
C227        C  0.41990736  0.01050744  0.99726149     0.83600
O228        O  0.02973834  0.43908259  0.98153010    -0.68500
O229        O  0.48457188  0.04844543  0.60732368    -0.87800
C230        C  0.00459782  0.43357018  0.99191927     0.84400
C231        C  0.49966575  0.47685421  0.88054917     1.06000
H232        H  0.47579758  0.48938264  0.54955015     0.37800
O233        O  0.48175761  0.50660547  0.53377110    -1.10400
O234        O  0.01799707  0.05161435  0.51810590    -0.67100
Ni235      Ni  0.02158440  0.00950509  0.53101976     1.26300
O236        O  0.48378078  0.45116008  0.98291958    -0.67300
O237        O  0.02302303  0.02114661  0.59941912    -0.79600
C238        C  0.08056492  0.49219519  0.50530072     0.83800
O239        O  0.06107249  0.01190991  0.52453635    -0.66800
Ni240      Ni  0.45703916  0.03999767  0.56390325     1.27400
Ni241      Ni  0.47878590  0.49320210  0.96911682     1.26100
H242        H  0.02204155  0.01566854  0.94720853     0.38400
O243        O  0.06940908  0.48068823  0.68424075    -0.81600
O244        O  0.43606559  0.49125827  0.74253227    -0.66300
O245        O  0.01317456  0.00570983  0.70846009    -1.12900
C246        C  0.01103753  0.00326348  0.86544951     1.05300
O247        O  0.42727518  0.02300595  0.80849672    -0.79500
O248        O  0.47120260  0.05775400  0.79549008    -0.67100
Ni249      Ni  0.03333516  0.47805113  0.65900652     1.34900
C250        C  0.49541828  0.06588827  0.78412012     0.84000
O251        O  0.46290404  0.50271916  0.65983139    -0.80000
O252        O  0.99921238  0.47480363  0.63123945    -0.90300
C253        C  0.41888422  0.00682138  0.77275393     0.83600
O254        O  0.02656749  0.44496434  0.69808281    -0.68500
O255        O  0.49684226  0.02809172  0.86476793    -0.87800
C256        C  0.00289187  0.43620259  0.71169232     0.84400
C257        C  0.48468303  0.49950012  0.63187307     1.06000
H258        H  0.48225302  0.47589289  0.79761479     0.37800
O259        O  0.48427536  0.49612499  0.78879089    -1.10400
O260        O  0.01726655  0.04750036  0.78283988    -0.67100
Ni261      Ni  0.02326354  0.00325156  0.77270684     1.26300
O262        O  0.48060822  0.45406235  0.71436146    -0.67300
O263        O  0.03307639  0.99914897  0.83815724    -0.79600
C264        C  0.07805628  0.49575441  0.72098195     0.83800
O265        O  0.06132596  0.00914719  0.75588642    -0.66800
Ni266      Ni  0.46304515  0.02528988  0.83547018     1.27400
Ni267      Ni  0.47366287  0.49828892  0.72477891     1.26100
H268        H  0.01545815  0.02607971  0.70049753     0.38400
O269        O  0.25118984  0.47521050  0.92153148    -0.75100
O270        O  0.25542105  0.47575472  0.56588327    -0.75200
O271        O  0.21459128  0.47529849  0.50166572    -0.75200
O272        O  0.29396603  0.47685884  0.48526568    -0.75300
O273        O  0.28636816  0.02934169  0.98655800    -0.75200
O274        O  0.20709620  0.02718151  0.00281711    -0.75200
O275        O  0.24956599  0.02737693  0.56746931    -0.75100
O276        O  0.24531240  0.02803266  0.92232580    -0.75200
Ni277      Ni  0.25441354  0.47420074  0.49323055     1.25400
Ni278      Ni  0.24655775  0.03007983  0.99495952     1.25400
C279        C  0.24803158  0.50007497  0.90063296     0.87100
C280        C  0.25307953  0.50067071  0.59369990     0.87000
C281        C  0.19901531  0.50009538  0.50796219     0.87000
C282        C  0.30371456  0.50118655  0.98533187     0.87200
O283        O  0.25397179  0.47532678  0.67075117    -0.75100
O284        O  0.24890321  0.47490510  0.81667752    -0.75200
O285        O  0.21155148  0.47468803  0.74374982    -0.75200
O286        O  0.29087633  0.47530275  0.74330559    -0.75300
O287        O  0.28622532  0.02810923  0.74486694    -0.75200
O288        O  0.20698893  0.02686192  0.74575183    -0.75200
O289        O  0.24431292  0.02766895  0.81786912    -0.75100
O290        O  0.24922079  0.02736318  0.67213283    -0.75200
Ni291      Ni  0.25140697  0.47330203  0.74339107     1.25400
Ni292      Ni  0.24650480  0.02924350  0.74529853     1.25400
C293        C  0.25238751  0.50043364  0.65018910     0.87100
C294        C  0.24674979  0.49990062  0.84440705     0.87000
C295        C  0.19619958  0.49956544  0.74622137     0.87000
C296        C  0.30154026  0.50050533  0.74861926     0.87200
C297        C  0.15674529  0.47524116  0.71086931    -0.09800
C298        C  0.16583761  0.49898053  0.74082391     0.06300
C299        C  0.14587567  0.02301874  0.76088468    -0.03600
C300        C  0.11764385  0.02105317  0.75423893    -0.08100
C301        C  0.10853132  0.49665687  0.72526680     0.05500
C302        C  0.12862390  0.47389597  0.70272873    -0.03100
Br303      Br  0.11947006  0.43948663  0.66224465    -0.02800
H304        H  0.17171679  0.45760341  0.69308664     0.09400
H305        H  0.10267749  0.03863656  0.77219588     0.07400
Br306      Br  0.15517311  0.05586739  0.80464614    -0.03200
C307        C  0.38022182  0.48322219  0.73460239    -0.09800
C308        C  0.38846076  0.00581479  0.76722007     0.06300
C309        C  0.36762188  0.02590519  0.79484440    -0.03600
C310        C  0.33974590  0.02491325  0.78508441    -0.08100
C311        C  0.33160407  0.00396669  0.74894570     0.05500
C312        C  0.35214825  0.48161329  0.72637496    -0.03100
Br313      Br  0.34330817  0.45366659  0.67357254    -0.02800
H314        H  0.39555318  0.46823163  0.71143782     0.09400
H315        H  0.32414048  0.04038688  0.80673261     0.07400
Br316      Br  0.37489941  0.05566352  0.84620160    -0.03200
C317        C  0.11944816  0.02347342  0.51616485    -0.09800
C318        C  0.11010187  0.49447627  0.51406500     0.06300
C319        C  0.12807945  0.46885453  0.00889988    -0.03600
C320        C  0.15645144  0.47155609  0.01069058    -0.08100
C321        C  0.16818495  0.49936911  0.51304740     0.05500
C322        C  0.14804653  0.02648219  0.51568877    -0.03100
Br323      Br  0.15875423  0.06689724  0.52267419    -0.02800
H324        H  0.10518104  0.04353721  0.51848607     0.09400
H325        H  0.17013322  0.45114000  0.00974182     0.07400
Br326      Br  0.11604926  0.42896547  0.00764787    -0.03200
C327        C  0.38212762  0.47977056  0.97906031    -0.09800
C328        C  0.39045055  0.00948885  0.98664853     0.06300
C329        C  0.37322006  0.03561889  0.48454799    -0.03600
C330        C  0.34491106  0.03280609  0.48151777    -0.08100
C331        C  0.33286649  0.00550597  0.97815730     0.05500
C332        C  0.35378005  0.47663567  0.97560059    -0.03100
Br333      Br  0.34358838  0.43634733  0.96296048    -0.02800
H334        H  0.39643263  0.45972246  0.97635451     0.09400
H335        H  0.33110673  0.05318287  0.48330870     0.07400
Br336      Br  0.38484044  0.07576645  0.48840529    -0.03200
C337        C  0.47780615  0.35898880  0.74045026    -0.09800
C338        C  0.50310879  0.34149455  0.74313098     0.06300
C339        C  0.02799706  0.35592471  0.73601976    -0.03600
C340        C  0.02701696  0.38648034  0.72705309    -0.08100
C341        C  0.00179160  0.40388111  0.72358384     0.05500
C342        C  0.47689019  0.38945096  0.73023549    -0.03100
Br343      Br  0.44081132  0.40880832  0.72276315    -0.02800
H344        H  0.45836465  0.34869460  0.74481255     0.09400
H345        H  0.04653152  0.39657431  0.72198055     0.07400
Br346      Br  0.06456364  0.33584963  0.73617388    -0.03200
C347        C  0.47534260  0.11429739  0.75521563    -0.09800
C348        C  0.49794877  0.09805455  0.77335843     0.06300
C349        C  0.02164272  0.11346864  0.78267709    -0.03600
C350        C  0.02219339  0.14405637  0.77396674    -0.08100
C351        C  0.49933372  0.16046536  0.75679674     0.05500
C352        C  0.47574873  0.14491927  0.74704927    -0.03100
Br353      Br  0.44335619  0.16358909  0.72149837    -0.02800
H354        H  0.45698210  0.10309581  0.74739870     0.09400
H355        H  0.04036613  0.15536887  0.78257899     0.07400
Br356      Br  0.05304920  0.09511955  0.81160090    -0.03200
C357        C  0.47642246  0.38989152  0.99353031    -0.09800
C358        C  0.99932805  0.40391663  0.00975123     0.06300
C359        C  0.01858975  0.38749343  0.03593648    -0.03600
C360        C  0.01697085  0.35655934  0.03871844    -0.08100
C361        C  0.99567382  0.34177953  0.01748919     0.05500
C362        C  0.47427317  0.35921795  0.99749823    -0.03100
Br363      Br  0.44293985  0.34264426  0.96995904    -0.02800
H364        H  0.46099738  0.40232981  0.97441147     0.09400
H365        H  0.03285629  0.34434189  0.55805971     0.07400
Br366      Br  0.04698526  0.40649347  0.57302639    -0.03200
C367        C  0.48711958  0.11550158  0.46462770    -0.09800
C368        C  0.50433114  0.10050235  0.49598001     0.06300
C369        C  0.02478263  0.11614351  0.51886316    -0.03600
C370        C  0.02637604  0.14665642  0.51265324    -0.08100
C371        C  0.50754823  0.16215570  0.48490693     0.05500
C372        C  0.48864533  0.14609593  0.45882704    -0.03100
Br373      Br  0.46439350  0.16489364  0.41518675    -0.02800
H374        H  0.47167838  0.10366028  0.44613185     0.09400
H375        H  0.04096111  0.15882745  0.53290077     0.07400
Br376      Br  0.04836647  0.09875605  0.56510924    -0.03200
O377        O  0.02677257  0.75380291  0.42584304    -0.75100
O378        O  0.02381149  0.74858664  0.07082067    -0.75200
O379        O  0.02679888  0.70762781  0.98977356    -0.75200
O380        O  0.02322182  0.79523754  0.50746147    -0.75300
O381        O  0.47712411  0.79525477  0.51414186    -0.75200
O382        O  0.48058265  0.70824457  0.99563925    -0.75200
O383        O  0.47773357  0.74890839  0.07786730    -0.75100
O384        O  0.48067188  0.75439502  0.43258464    -0.75200
Ni385      Ni  0.02833834  0.75219528  0.49829067     1.25400
Ni386      Ni  0.47589162  0.75113799  0.00563293     1.25400
C387        C  0.50370325  0.75427806  0.40504324     0.87100
C388        C  0.50086809  0.74809580  0.09844067     0.87000
C389        C  0.00467323  0.69383309  0.98947296     0.87000
C390        C  0.99900707  0.80946684  0.51325862     0.87200
O391        O  0.02456195  0.74479831  0.17449626    -0.75100
O392        O  0.02629125  0.75060103  0.31999452    -0.75200
O393        O  0.02473219  0.70441120  0.24788984    -0.75200
O394        O  0.02603609  0.79040817  0.24638015    -0.75300
O395        O  0.47984398  0.79594627  0.25530370    -0.75200
O396        O  0.47861629  0.70993165  0.25685792    -0.75200
O397        O  0.48009822  0.75592471  0.32881002    -0.75100
O398        O  0.47836967  0.75008642  0.18337151    -0.75200
Ni399      Ni  0.02700057  0.74733319  0.24691065     1.25400
Ni400      Ni  0.47764242  0.75311721  0.25645163     1.25400
C401        C  0.50123898  0.74736569  0.15473864     0.87100
C402        C  0.50341711  0.75383669  0.34862211     0.87000
C403        C  0.50135435  0.69284688  0.25347137     0.87000
C404        C  0.50323149  0.80729468  0.24860540     0.87200
O405        O  0.07430077  0.97221709  0.47039104    -0.81600
O406        O  0.43959465  0.99097383  0.47556513    -0.66300
O407        O  0.02085439  0.49789455  0.46437011    -1.12900
C408        C  0.00019837  0.52448365  0.11977765     1.05300
O409        O  0.42738903  0.53201608  0.02685391    -0.79500
O410        O  0.47283179  0.56403001  0.01849386    -0.67100
Ni411      Ni  0.04342090  0.96471449  0.43276777     1.34900
C412        C  0.49825949  0.56918909  0.01099604     0.84000
O413        O  0.47654439  0.98188776  0.39983958    -0.80000
O414        O  0.01508776  0.95517335  0.39210721    -0.90300
C415        C  0.42281052  0.51234213  0.49133488     0.83600
O416        O  0.02955053  0.93997050  0.48195674    -0.68500
O417        O  0.48619455  0.54731701  0.10803859    -0.87800
C418        C  0.00438584  0.93453912  0.49196729     0.84400
C419        C  0.50066705  0.97763934  0.38020991     1.06000
H420        H  0.47525918  0.98541813  0.05008103     0.37800
O421        O  0.48032046  0.00317173  0.03480991    -1.10400
O422        O  0.01836564  0.55051985  0.01900681    -0.67100
Ni423      Ni  0.02216627  0.50837523  0.03109544     1.26300
O424        O  0.48361996  0.95204126  0.48227121    -0.67300
O425        O  0.02429524  0.51932358  0.09960057    -0.79600
C426        C  0.07857112  0.99100612  0.99627783     0.83800
O427        O  0.06147042  0.51126518  0.02329873    -0.66800
Ni428      Ni  0.45799576  0.53872360  0.06613364     1.27400
Ni429      Ni  0.47883098  0.99407824  0.46763024     1.26100
H430        H  0.02618362  0.51541391  0.44860780     0.38400
O431        O  0.07046073  0.97987125  0.18458032    -0.81600
O432        O  0.43715050  0.99077569  0.24486728    -0.66300
O433        O  0.01538668  0.50476984  0.21014781    -1.12900
C434        C  0.01617122  0.50143657  0.36681262     1.05300
O435        O  0.43056848  0.52174606  0.31536037    -0.79500
O436        O  0.47453581  0.55662414  0.30043612    -0.67100
Ni437      Ni  0.03425611  0.97559727  0.16090134     1.34900
C438        C  0.49850688  0.56480149  0.28705156     0.84000
O439        O  0.46389206  0.99941071  0.16065721    -0.80000
O440        O  0.00007047  0.97071844  0.13416673    -0.90300
C441        C  0.42168599  0.50636705  0.27905904     0.83600
O442        O  0.02788305  0.94400838  0.20338270    -0.68500
O443        O  0.50172968  0.52624067  0.36708932    -0.87800
C444        C  0.00419050  0.93523732  0.21695206     0.84400
C445        C  0.48563597  0.99522422  0.13269355     1.06000
H446        H  0.48289814  0.97680506  0.29957029     0.37800
O447        O  0.48531506  0.99676773  0.28991748    -1.10400
O448        O  0.02046436  0.54643284  0.28427579    -0.67100
Ni449      Ni  0.02648539  0.50216249  0.27361985     1.26300
O450        O  0.48173980  0.95282843  0.21880585    -0.67300
O451        O  0.03768436  0.49758896  0.33816440    -0.79600
C452        C  0.07919877  0.99553269  0.22053512     0.83800
O453        O  0.06421998  0.50816752  0.25458862    -0.66800
Ni454      Ni  0.46715739  0.52377314  0.34006609     1.27400
Ni455      Ni  0.47473305  0.99718789  0.22598320     1.26100
H456        H  0.01768286  0.52505031  0.20169911     0.38400
O457        O  0.25157803  0.97780099  0.41533167    -0.75100
O458        O  0.25346764  0.97875737  0.06069965    -0.75200
O459        O  0.21248755  0.97728811  0.99656550    -0.75200
O460        O  0.29137116  0.97944005  0.98011364    -0.75300
O461        O  0.28888189  0.52675476  0.49207783    -0.75200
O462        O  0.20986968  0.52520404  0.50914111    -0.75200
O463        O  0.25058986  0.52594736  0.07264759    -0.75100
O464        O  0.24772147  0.52585322  0.42815652    -0.75200
Ni465      Ni  0.25210859  0.97667478  0.98807785     1.25400
Ni466      Ni  0.24917808  0.52760538  0.50086101     1.25400
C467        C  0.24864089  0.00287464  0.39489793     0.87100
C468        C  0.25143637  0.00383955  0.08808335     0.87000
C469        C  0.19659307  0.00180742  0.00203972     0.87000
C470        C  0.30343799  0.00345113  0.48098540     0.87200
O471        O  0.25465979  0.97888130  0.16494396    -0.75100
O472        O  0.25060864  0.97826558  0.31054425    -0.75200
O473        O  0.21296754  0.97799122  0.23852899    -0.75200
O474        O  0.29235210  0.97936046  0.23674875    -0.75300
O475        O  0.28837639  0.52696342  0.25116120    -0.75200
O476        O  0.20919779  0.52481785  0.25038021    -0.75200
O477        O  0.24621092  0.52579985  0.32353728    -0.75100
O478        O  0.25141870  0.52603770  0.17770898    -0.75200
Ni479      Ni  0.25281375  0.97690077  0.23743128     1.25400
Ni480      Ni  0.24861623  0.52762808  0.25091271     1.25400
C481        C  0.25225025  0.00391866  0.14439168     0.87100
C482        C  0.24803590  0.00313446  0.33855290     0.87000
C483        C  0.19743343  0.00275762  0.24106294     0.87000
C484        C  0.30289234  0.00464899  0.24235277     0.87200
C485        C  0.15801274  0.97688538  0.20894551    -0.09800
C486        C  0.16703914  0.00184529  0.23602212     0.06300
C487        C  0.14822277  0.52190433  0.25896889    -0.03600
C488        C  0.12016679  0.51994444  0.25118569    -0.08100
C489        C  0.10964931  0.99763065  0.22303088     0.05500
C490        C  0.12990866  0.97479404  0.20154345    -0.03100
Br491      Br  0.12104560  0.93964711  0.16258712    -0.02800
H492        H  0.17304317  0.95891591  0.19251002     0.09400
H493        H  0.10520441  0.53801295  0.26743310     0.07400
Br494      Br  0.15697469  0.55658167  0.29912901    -0.03200
C495        C  0.38142053  0.98545043  0.23361210    -0.09800
C496        C  0.39113824  0.50532155  0.27411987     0.06300
C497        C  0.37052179  0.52693776  0.29848142    -0.03600
C498        C  0.34254682  0.52568466  0.28893773    -0.08100
C499        C  0.33412679  0.50319165  0.25558237     0.05500
C500        C  0.35358220  0.98469501  0.22334642    -0.03100
Br501      Br  0.34539572  0.95605396  0.17108333    -0.02800
H502        H  0.39667051  0.96934895  0.21251273     0.09400
H503        H  0.32714866  0.54236693  0.30825972     0.07400
Br504      Br  0.37868482  0.55962638  0.34359956    -0.03200
C505        C  0.11988957  0.52310928  0.01356983    -0.09800
C506        C  0.10819222  0.99360342  0.00383063     0.06300
C507        C  0.12811084  0.96922651  0.50887690    -0.03600
C508        C  0.15658644  0.97212978  0.50802761    -0.08100
C509        C  0.16585231  0.00012979  0.00600894     0.05500
C510        C  0.14843035  0.52593857  0.01519106    -0.03100
Br511      Br  0.15943844  0.56631135  0.01972974    -0.02800
H512        H  0.10582757  0.54321733  0.01396148     0.09400
H513        H  0.17051267  0.95179728  0.50521647     0.07400
Br514      Br  0.11649221  0.92915597  0.50816254    -0.03200
C515        C  0.38168193  0.98133917  0.47654951    -0.09800
C516        C  0.39329502  0.50989987  0.48213877     0.06300
C517        C  0.37309592  0.53397229  0.98981634    -0.03600
C518        C  0.34485108  0.53089029  0.98686143    -0.08100
C519        C  0.33547072  0.50358953  0.48082461     0.05500
C520        C  0.35327590  0.97844467  0.47345161    -0.03100
Br521      Br  0.34265095  0.93804812  0.46480765    -0.02800
H522        H  0.39575604  0.96117601  0.47519679     0.09400
H523        H  0.33086244  0.55117241  0.98974815     0.07400
Br524      Br  0.38425481  0.57429860  0.99466492    -0.03200
C525        C  0.48220555  0.86077035  0.26461320    -0.09800
C526        C  0.50385527  0.84012965  0.24184075     0.06300
C527        C  0.02516556  0.85126666  0.21113280    -0.03600
C528        C  0.02466007  0.88202392  0.20446043    -0.08100
C529        C  0.00316348  0.90281937  0.22723263     0.05500
C530        C  0.48173362  0.89174005  0.25791480    -0.03100
Br531      Br  0.45197474  0.91751566  0.29384599    -0.02800
H532        H  0.46563123  0.85282493  0.28831938     0.09400
H533        H  0.04113482  0.88960549  0.18007839     0.07400
Br534      Br  0.05471515  0.82577946  0.17372474    -0.03200
C535        C  0.47657384  0.61366264  0.26281878    -0.09800
C536        C  0.50052174  0.59701455  0.27548833     0.06300
C537        C  0.02508486  0.61204800  0.27820217    -0.03600
C538        C  0.02497784  0.64270155  0.26941285    -0.08100
C539        C  0.50077872  0.65954105  0.25808189     0.05500
C540        C  0.47644255  0.64424089  0.25407145    -0.03100
Br541      Br  0.44213696  0.66302016  0.23565825    -0.02800
H542        H  0.45753446  0.60279757  0.25965017     0.09400
H543        H  0.04392912  0.65365705  0.27304060     0.07400
Br544      Br  0.05916226  0.59306200  0.29710249    -0.03200
C545        C  0.47681596  0.89043479  0.49294379    -0.09800
C546        C  0.99924280  0.90495541  0.51008338     0.06300
C547        C  0.01860547  0.88884223  0.53662095    -0.03600
C548        C  0.01740685  0.85789462  0.53935813    -0.08100
C549        C  0.99659669  0.84272103  0.51745077     0.05500
C550        C  0.47525294  0.85964255  0.49648482    -0.03100
Br551      Br  0.44511236  0.84203152  0.46649505    -0.02800
H552        H  0.46148701  0.90253833  0.47315079     0.09400
H553        H  0.03204820  0.84359426  0.05406799     0.07400
Br554      Br  0.04749496  0.90522620  0.06243584    -0.03200
C555        C  0.48699304  0.61383210  0.96493289    -0.09800
C556        C  0.50445348  0.59911179  0.99618486     0.06300
C557        C  0.02520554  0.61488324  0.01793170    -0.03600
C558        C  0.02608715  0.64553588  0.01236911    -0.08100
C559        C  0.50686096  0.66079243  0.98508527     0.05500
C560        C  0.48836224  0.64438261  0.95863592    -0.03100
Br561      Br  0.46515341  0.66241694  0.91266636    -0.02800
H562        H  0.47169463  0.60172835  0.94649577     0.09400
H563        H  0.04073970  0.65787876  0.03215493     0.07400
Br564      Br  0.05096501  0.59725040  0.06037419    -0.03200
O565        O  0.02352356  0.75231134  0.92627503    -0.75100
O566        O  0.02645514  0.75026510  0.57107889    -0.75200
O567        O  0.03034244  0.70923430  0.48953607    -0.75200
O568        O  0.02046586  0.79352555  0.00743891    -0.75300
O569        O  0.47433635  0.79402972  0.01479083    -0.75200
O570        O  0.48416359  0.70948383  0.49489791    -0.75200
O571        O  0.48041034  0.75020705  0.57697192    -0.75100
O572        O  0.47739522  0.75333894  0.93300250    -0.75200
Ni573      Ni  0.02524418  0.75053039  0.99835801     1.25400
Ni574      Ni  0.47902242  0.75234475  0.50493140     1.25400
C575        C  0.50048435  0.75330461  0.90550183     0.87100
C576        C  0.50329488  0.74960648  0.59815683     0.87000
C577        C  0.00834022  0.69525081  0.48867967     0.87000
C578        C  0.99636620  0.80799848  0.01336073     0.87200
O579        O  0.02559253  0.74619850  0.67581769    -0.75100
O580        O  0.02404343  0.75098607  0.82168203    -0.75200
O581        O  0.02375951  0.70530263  0.74859827    -0.75200
O582        O  0.02543977  0.79164285  0.74894327    -0.75300
O583        O  0.47932249  0.79682398  0.75534678    -0.75200
O584        O  0.47761672  0.71086361  0.75437421    -0.75200
O585        O  0.47785129  0.75606411  0.82795246    -0.75100
O586        O  0.47940726  0.75152411  0.68185732    -0.75200
Ni587      Ni  0.02631290  0.74832459  0.74858287     1.25400
Ni588      Ni  0.47697637  0.75399923  0.75509746     1.25400
C589        C  0.50276531  0.74885349  0.65457681     0.87100
C590        C  0.50075542  0.75368913  0.84907858     0.87000
C591        C  0.50026942  0.69378150  0.75240537     0.87000
C592        C  0.50263105  0.80855312  0.75080505     0.87200
O593        O  0.07280391  0.97096585  0.96376273    -0.81600
O594        O  0.43782072  0.98983030  0.97765050    -0.66300
O595        O  0.01924764  0.49805626  0.96346544    -1.12900
C596        C  0.99807750  0.52631903  0.61938374     1.05300
O597        O  0.42889648  0.53529814  0.51753284    -0.79500
O598        O  0.47459458  0.56683041  0.51669747    -0.67100
Ni599      Ni  0.04084318  0.96355455  0.92879461     1.34900
C600        C  0.50029560  0.57090343  0.50938788     0.84000
O601        O  0.47350354  0.98204366  0.89987814    -0.80000
O602        O  0.01145699  0.95423303  0.89052765    -0.90300
C603        C  0.42144900  0.51017977  0.99787440     0.83600
O604        O  0.02794313  0.93850864  0.97836751    -0.68500
O605        O  0.48393540  0.54913162  0.60778862    -0.87800
C606        C  0.00287347  0.93286642  0.98904390     0.84400
C607        C  0.49735634  0.97701374  0.87910888     1.06000
H608        H  0.47551162  0.98808638  0.54937097     0.37800
O609        O  0.48105478  0.00571721  0.53429304    -1.10400
O610        O  0.01978897  0.55150530  0.51766115    -0.67100
Ni611      Ni  0.02224169  0.50963727  0.53211121     1.26300
O612        O  0.48191471  0.95045464  0.98045741    -0.67300
O613        O  0.02254755  0.52201929  0.60056835    -0.79600
C614        C  0.07970518  0.99286146  0.50210643     0.83800
O615        O  0.06186909  0.51136850  0.52726403    -0.66800
Ni616      Ni  0.45762938  0.54121891  0.56150796     1.27400
Ni617      Ni  0.47693930  0.99284240  0.96794173     1.26100
H618        H  0.02385548  0.51595449  0.94810674     0.38400
O619        O  0.06964208  0.98038234  0.68438739    -0.81600
O620        O  0.43587037  0.99160694  0.74032250    -0.66300
O621        O  0.01296693  0.50609869  0.70920734    -1.12900
C622        C  0.01255541  0.50346119  0.86634856     1.05300
O623        O  0.42765975  0.52185565  0.81170293    -0.79500
O624        O  0.47106519  0.55779880  0.79812657    -0.67100
Ni625      Ni  0.03367954  0.97745921  0.65882318     1.34900
C626        C  0.49512806  0.56614834  0.78589169     0.84000
O627        O  0.46326331  0.00218549  0.65804379    -0.80000
O628        O  0.99970941  0.97414236  0.63069597    -0.90300
C629        C  0.41915974  0.50574464  0.77590739     0.83600
O630        O  0.02654446  0.94466614  0.69848304    -0.68500
O631        O  0.49780153  0.52801370  0.86612391    -0.87800
C632        C  0.00273675  0.93606772  0.71179629     0.84400
C633        C  0.48529461  0.99887323  0.63094500     1.06000
H634        H  0.48120574  0.97606061  0.79611921     0.37800
O635        O  0.48366366  0.99621301  0.78732809    -1.10400
O636        O  0.01711988  0.54788848  0.78354981    -0.67100
Ni637      Ni  0.02363376  0.50372407  0.77308233     1.26300
O638        O  0.48045702  0.95388403  0.71340838    -0.67300
O639        O  0.03424588  0.49977305  0.83810475    -0.79600
C640        C  0.07808563  0.99531542  0.72150071     0.83800
O641        O  0.06142269  0.51006396  0.75507613    -0.66800
Ni642      Ni  0.46372279  0.52478758  0.83767914     1.27400
Ni643      Ni  0.47363249  0.99817363  0.72317399     1.26100
H644        H  0.01496850  0.52651038  0.70120777     0.38400
O645        O  0.25043216  0.97805477  0.91587957    -0.75100
O646        O  0.25441890  0.97739473  0.56027967    -0.75200
O647        O  0.21356148  0.97688183  0.49637278    -0.75200
O648        O  0.29264481  0.97827448  0.47962187    -0.75300
O649        O  0.28813266  0.52592485  0.99094738    -0.75200
O650        O  0.20912208  0.52548730  0.00930880    -0.75200
O651        O  0.25069380  0.52573536  0.57311445    -0.75100
O652        O  0.24658539  0.52519263  0.92784852    -0.75200
Ni653      Ni  0.25323560  0.97584545  0.48756834     1.25400
Ni654      Ni  0.24849368  0.52735964  0.00040916     1.25400
C655        C  0.24735078  0.00293626  0.89500259     0.87100
C656        C  0.25218750  0.00235256  0.58804476     0.87000
C657        C  0.19794059  0.00159497  0.50314889     0.87000
C658        C  0.30207540  0.00464314  0.98109559     0.87200
O659        O  0.25387846  0.97736390  0.66535378    -0.75100
O660        O  0.24925781  0.97766873  0.81120530    -0.75200
O661        O  0.21190037  0.97683531  0.73911159    -0.75200
O662        O  0.29102660  0.97802234  0.73751601    -0.75300
O663        O  0.28625359  0.52539308  0.75126747    -0.75200
O664        O  0.20703741  0.52470867  0.75103695    -0.75200
O665        O  0.24423050  0.52490124  0.82377599    -0.75100
O666        O  0.24958441  0.52532647  0.67813733    -0.75200
Ni667      Ni  0.25164226  0.97574198  0.73804189     1.25400
Ni668      Ni  0.24657074  0.52679652  0.75126451     1.25400
C669        C  0.25195342  0.00234396  0.64449339     0.87100
C670        C  0.24674488  0.00273162  0.83872211     0.87000
C671        C  0.19635244  0.00156345  0.74186645     0.87000
C672        C  0.30159190  0.00327924  0.74251190     0.87200
C673        C  0.15683047  0.97601283  0.70992735    -0.09800
C674        C  0.16595342  0.00046367  0.73805837     0.06300
C675        C  0.14581061  0.52177389  0.76310015    -0.03600
C676        C  0.11768201  0.52033174  0.75536975    -0.08100
C677        C  0.10851201  0.99673833  0.72552455     0.05500
C678        C  0.12862276  0.97381955  0.70374590    -0.03100
Br679      Br  0.11931328  0.93771721  0.66809247    -0.02800
H680        H  0.17181164  0.95829027  0.69245086     0.09400
H681        H  0.10279790  0.53797431  0.77339493     0.07400
Br682      Br  0.15491694  0.55477648  0.80668379    -0.03200
C683        C  0.38003727  0.98474343  0.73104330    -0.09800
C684        C  0.38866354  0.50397931  0.77135198     0.06300
C685        C  0.36771366  0.52317380  0.80044564    -0.03600
C686        C  0.33974372  0.52168514  0.79165226    -0.08100
C687        C  0.33159396  0.50117545  0.75485633     0.05500
C688        C  0.35206958  0.98353264  0.72205114    -0.03100
Br689      Br  0.34336013  0.95449232  0.67078722    -0.02800
H690        H  0.39530428  0.96903962  0.70911976     0.09400
H691        H  0.32408679  0.53657185  0.81433555     0.07400
Br692      Br  0.37499496  0.55256492  0.85230652    -0.03200
C693        C  0.12065258  0.52274780  0.51588598    -0.09800
C694        C  0.10924704  0.99507560  0.51087946     0.06300
C695        C  0.12738604  0.96805793  0.00131424    -0.03600
C696        C  0.15571602  0.97149540  0.00228775    -0.08100
C697        C  0.16719536  0.00049533  0.50953264     0.05500
C698        C  0.14932254  0.52548699  0.51464514    -0.03100
Br699      Br  0.16052290  0.56560682  0.51162797    -0.02800
H700        H  0.10663561  0.54279036  0.51519883     0.09400
H701        H  0.16991106  0.95137044  0.99935497     0.07400
Br702      Br  0.11627603  0.92774760  0.99818061    -0.03200
C703        C  0.37998750  0.98152072  0.97697750    -0.09800
C704        C  0.39199480  0.50816150  0.98799160     0.06300
C705        C  0.37432925  0.53544770  0.48124919    -0.03600
C706        C  0.34592346  0.53207478  0.48049634    -0.08100
C707        C  0.33447849  0.50244922  0.98157259     0.05500
C708        C  0.35165540  0.97923376  0.97235438    -0.03100
Br709      Br  0.34086117  0.93927530  0.95830732    -0.02800
H710        H  0.39381661  0.96111126  0.97444974     0.09400
H711        H  0.33188187  0.55217015  0.48080805     0.07400
Br712      Br  0.38565744  0.57566078  0.48047093    -0.03200
C713        C  0.47787155  0.85822465  0.73606161    -0.09800
C714        C  0.50278082  0.84180043  0.74512204     0.06300
C715        C  0.02709927  0.85740804  0.74545831    -0.03600
C716        C  0.02619297  0.88778640  0.73522268    -0.08100
C717        C  0.00147308  0.90399821  0.72478858     0.05500
C718        C  0.47693761  0.88870514  0.72607967    -0.03100
Br719      Br  0.44148655  0.90703876  0.71224414    -0.02800
H720        H  0.45884594  0.84710037  0.73543890     0.09400
H721        H  0.04527425  0.89883821  0.73549934     0.07400
Br722      Br  0.06245787  0.83942605  0.76044687    -0.03200
C723        C  0.47501904  0.61453434  0.75649422    -0.09800
C724        C  0.49750428  0.59837203  0.77514432     0.06300
C725        C  0.02132611  0.61371689  0.78391777    -0.03600
C726        C  0.02196898  0.64425054  0.77492785    -0.08100
C727        C  0.49929824  0.66056973  0.75706207     0.05500
C728        C  0.47576815  0.64496917  0.74701303    -0.03100
Br729      Br  0.44430019  0.66311813  0.71798689    -0.02800
H730        H  0.45668344  0.60330205  0.74862250     0.09400
H731        H  0.04017832  0.65552926  0.78341978     0.07400
Br732      Br  0.05312718  0.59516365  0.81143161    -0.03200
C733        C  0.47486162  0.88899259  0.99193507    -0.09800
C734        C  0.99796331  0.90316376  0.00704187     0.06300
C735        C  0.01774373  0.88685171  0.03243313    -0.03600
C736        C  0.01597409  0.85611349  0.03654808    -0.08100
C737        C  0.99435572  0.84124050  0.01682135     0.05500
C738        C  0.47282078  0.85835465  0.99666780    -0.03100
Br739      Br  0.44162438  0.84116912  0.96956431    -0.02800
H740        H  0.45922129  0.90124277  0.97302315     0.09400
H741        H  0.03322626  0.84550158  0.55766176     0.07400
Br742      Br  0.04685845  0.90786089  0.57017141    -0.03200
C743        C  0.49013271  0.61563688  0.46279142    -0.09800
C744        C  0.50743611  0.60047891  0.49384186     0.06300
C745        C  0.02865447  0.61575290  0.51507247    -0.03600
C746        C  0.02991625  0.64644562  0.50983258    -0.08100
C747        C  0.51063768  0.66217700  0.48324115     0.05500
C748        C  0.49192135  0.64615496  0.45668735    -0.03100
Br749      Br  0.46878540  0.66477176  0.41112448    -0.02800
H750        H  0.47451343  0.60394238  0.44455651     0.09400
H751        H  0.04484142  0.65844854  0.52947375     0.07400
Br752      Br  0.05456817  0.59735877  0.55638258    -0.03200
O753        O  0.52457916  0.25360177  0.42579371    -0.75100
O754        O  0.52444016  0.24870051  0.07066562    -0.75200
O755        O  0.52722451  0.20745709  0.98988734    -0.75200
O756        O  0.52164392  0.29493738  0.50759181    -0.75300
O757        O  0.97552311  0.29548759  0.51456521    -0.75200
O758        O  0.98100405  0.20870780  0.99617807    -0.75200
O759        O  0.97830666  0.24974678  0.07740812    -0.75100
O760        O  0.97846467  0.25453537  0.43277076    -0.75200
Ni761      Ni  0.52636017  0.25185125  0.49809865     1.25400
Ni762      Ni  0.97664857  0.25168315  0.00531304     1.25400
C763        C  0.00149298  0.25427678  0.40507409     0.87100
C764        C  0.00137096  0.24860616  0.09809941     0.87000
C765        C  0.50491737  0.19388569  0.99027608     0.87000
C766        C  0.49754897  0.30945112  0.51401445     0.87200
O767        O  0.52444331  0.24562616  0.17480156    -0.75100
O768        O  0.52451321  0.25143721  0.32050547    -0.75200
O769        O  0.52445327  0.20533755  0.24790568    -0.75200
O770        O  0.52444033  0.29130360  0.24678675    -0.75300
O771        O  0.97820829  0.29604740  0.25471357    -0.75200
O772        O  0.97821285  0.20976633  0.25450933    -0.75200
O773        O  0.97830571  0.25553826  0.32797264    -0.75100
O774        O  0.97821902  0.25036974  0.18220534    -0.75200
Ni775      Ni  0.52604706  0.24824991  0.24735310     1.25400
Ni776      Ni  0.97662738  0.25305942  0.25525487     1.25400
C777        C  0.00134058  0.24792151  0.15433065     0.87100
C778        C  0.00142990  0.25396726  0.34852771     0.87000
C779        C  0.00129289  0.19327103  0.25160240     0.87000
C780        C  0.00143187  0.30774163  0.24804911     0.87200
O781        O  0.57528431  0.47130003  0.47397095    -0.81600
O782        O  0.94095307  0.49111972  0.47468178    -0.66300
O783        O  0.51939319  0.99874080  0.46345470    -1.12900
C784        C  0.49934994  0.02144313  0.11873048     1.05300
O785        O  0.92622668  0.03190929  0.02675797    -0.79500
O786        O  0.97194156  0.06352034  0.02035872    -0.67100
Ni787      Ni  0.54476805  0.46316228  0.43592649     1.34900
C788        C  0.99738704  0.06859805  0.01271366     0.84000
O789        O  0.97862752  0.47985456  0.39997803    -0.80000
O790        O  0.51693969  0.45286727  0.39460653    -0.90300
C791        C  0.92128336  0.01151981  0.49428134     0.83600
O792        O  0.53004325  0.43951681  0.48613468    -0.68500
O793        O  0.98535405  0.04466350  0.10842543    -0.87800
C794        C  0.50471027  0.43442607  0.49541738     0.84400
C795        C  0.00285748  0.47502226  0.38092676     1.06000
H796        H  0.97663620  0.48674101  0.05148582     0.37800
O797        O  0.98172861  0.50437752  0.03591449    -1.10400
O798        O  0.51743626  0.04943933  0.01939530    -0.67100
Ni799      Ni  0.52080879  0.00678689  0.02946109     1.26300
O800        O  0.98431517  0.45203742  0.48454132    -0.67300
O801        O  0.52335970  0.01642433  0.09810254    -0.79600
C802        C  0.58001321  0.49248812  0.00012399     0.83800
O803        O  0.56013835  0.00918697  0.02115983    -0.66800
Ni804      Ni  0.95694227  0.03735194  0.06641370     1.27400
Ni805      Ni  0.98024378  0.49364355  0.46742784     1.26100
H806        H  0.52436536  0.01659490  0.44835886     0.38400
O807        O  0.57158739  0.47822996  0.18430083    -0.81600
O808        O  0.93826891  0.49176712  0.24533554    -0.66300
O809        O  0.51406462  0.00476623  0.20954787    -1.12900
C810        C  0.51363015  0.00441848  0.36674550     1.05300
O811        O  0.92889643  0.02410272  0.31059619    -0.79500
O812        O  0.97304955  0.05844481  0.29662691    -0.67100
Ni813      Ni  0.53503813  0.47604703  0.16020663     1.34900
C814        C  0.99724908  0.06616598  0.28390347     0.84000
O815        O  0.96485895  0.50242129  0.16219297    -0.80000
O816        O  0.50052178  0.47336586  0.13348452    -0.90300
C817        C  0.92027892  0.00716838  0.27594182     0.83600
O818        O  0.52774843  0.44345791  0.20027700    -0.68500
O819        O  0.99891814  0.02903519  0.36643768    -0.87800
C820        C  0.50381134  0.43523620  0.21375520     0.84400
C821        C  0.98641505  0.49830010  0.13368426     1.06000
H822        H  0.98483535  0.47491758  0.29892587     0.37800
O823        O  0.98702056  0.49514276  0.29032750    -1.10400
O824        O  0.51902831  0.04772413  0.28220090    -0.67100
Ni825      Ni  0.52486478  0.00358174  0.27369198     1.26300
O826        O  0.98179434  0.45348583  0.21636541    -0.67300
O827        O  0.53548472  0.00083427  0.33897007    -0.79600
C828        C  0.58059047  0.49373810  0.22024489     0.83800
O829        O  0.56273058  0.00944314  0.25523731    -0.66800
Ni830      Ni  0.96487259  0.02628555  0.33743822     1.27400
Ni831      Ni  0.97595204  0.49778738  0.22678074     1.26100
H832        H  0.51611662  0.02496927  0.20045591     0.38400
O833        O  0.75281533  0.47588421  0.42109514    -0.75100
O834        O  0.75508260  0.47596686  0.06621644    -0.75200
O835        O  0.71356655  0.47557312  0.00296130    -0.75200
O836        O  0.79288156  0.47600972  0.98485382    -0.75300
O837        O  0.78780198  0.02817699  0.48685198    -0.75200
O838        O  0.70868419  0.02678661  0.50358511    -0.75200
O839        O  0.74820419  0.02872405  0.06724291    -0.75100
O840        O  0.74673154  0.02777305  0.42272535    -0.75200
Ni841      Ni  0.75334142  0.47394177  0.99367695     1.25400
Ni842      Ni  0.74805960  0.02925519  0.49534958     1.25400
C843        C  0.74963982  0.50085260  0.40052399     0.87100
C844        C  0.75341800  0.50102977  0.09356048     0.87000
C845        C  0.69812981  0.50046292  0.00852769     0.87000
C846        C  0.80465179  0.50214850  0.48595504     0.87200
O847        O  0.75641245  0.47605675  0.17061155    -0.75100
O848        O  0.75145096  0.47582489  0.31644934    -0.75200
O849        O  0.71428310  0.47483501  0.24330311    -0.75200
O850        O  0.79351516  0.47693609  0.24349920    -0.75300
O851        O  0.78739188  0.02940761  0.24501483    -0.75200
O852        O  0.70811465  0.02797621  0.24579507    -0.75200
O853        O  0.74552402  0.02824330  0.31813481    -0.75100
O854        O  0.74995886  0.02887010  0.17223539    -0.75200
Ni855      Ni  0.75408385  0.47417841  0.24323636     1.25400
Ni856      Ni  0.74759628  0.03036085  0.24549946     1.25400
C857        C  0.75401695  0.50107437  0.14993069     0.87100
C858        C  0.74884059  0.50081078  0.34420770     0.87000
C859        C  0.69866717  0.49950667  0.24532400     0.87000
C860        C  0.80396692  0.50227836  0.24893158     0.87200
C861        C  0.65943530  0.47386713  0.21115156    -0.09800
C862        C  0.66836489  0.49852635  0.23926119     0.06300
C863        C  0.64691430  0.02534655  0.25553672    -0.03600
C864        C  0.61868499  0.02275520  0.24970144    -0.08100
C865        C  0.61112828  0.49520510  0.22348947     0.05500
C866        C  0.63134735  0.47207375  0.20282075    -0.03100
Br867      Br  0.62230030  0.43670077  0.16475735    -0.02800
H868        H  0.67448598  0.45583163  0.19503072     0.09400
H869        H  0.60365058  0.04077374  0.26597838     0.07400
Br870      Br  0.65599783  0.06143450  0.29145357    -0.03200
C871        C  0.88249825  0.48280937  0.24073166    -0.09800
C872        C  0.88980735  0.00665762  0.26962049     0.06300
C873        C  0.86898794  0.02747390  0.29562469    -0.03600
C874        C  0.84113997  0.02669650  0.28505895    -0.08100
C875        C  0.83299961  0.00542823  0.24928576     0.05500
C876        C  0.85456336  0.48159165  0.23134297    -0.03100
Br877      Br  0.84609407  0.45098328  0.18244531    -0.02800
H878        H  0.89765073  0.46602051  0.22103808     0.09400
H879        H  0.82556363  0.04262982  0.30575608     0.07400
Br880      Br  0.87641989  0.05800223  0.34554971    -0.03200
C881        C  0.61787341  0.02220396  0.01038270    -0.09800
C882        C  0.60953304  0.49475569  0.00886046     0.06300
C883        C  0.62871985  0.46858225  0.51419640    -0.03600
C884        C  0.65722144  0.47125683  0.51428282    -0.08100
C885        C  0.66731884  0.49978173  0.01239072     0.05500
C886        C  0.64630094  0.02576193  0.01156144    -0.03100
Br887      Br  0.65619460  0.06640621  0.02035532    -0.02800
H888        H  0.60330148  0.04203151  0.01292153     0.09400
H889        H  0.67093180  0.45089752  0.51386452     0.07400
Br890      Br  0.61673604  0.42866814  0.51362927    -0.03200
C891        C  0.88327104  0.48134219  0.47879682    -0.09800
C892        C  0.89187145  0.00966100  0.48389060     0.06300
C893        C  0.87218990  0.03580855  0.98803177    -0.03600
C894        C  0.84382604  0.03359091  0.98421437    -0.08100
C895        C  0.83423296  0.00448322  0.47765954     0.05500
C896        C  0.85481373  0.47789334  0.47834683    -0.03100
Br897      Br  0.84460654  0.43726593  0.47649084    -0.02800
H898        H  0.89755557  0.46146287  0.47897452     0.09400
H899        H  0.83022711  0.05416066  0.98693326     0.07400
Br900      Br  0.88459379  0.07558863  0.99308189    -0.03200
C901        C  0.98057827  0.36142813  0.26261669    -0.09800
C902        C  0.00181082  0.34037127  0.23969208     0.06300
C903        C  0.52258187  0.35078456  0.20693648    -0.03600
C904        C  0.52279161  0.38149007  0.20028089    -0.08100
C905        C  0.50193177  0.40282181  0.22365384     0.05500
C906        C  0.98031371  0.39225120  0.25471261    -0.03100
Br907      Br  0.95025342  0.41839910  0.28887521    -0.02800
H908        H  0.96411337  0.35390673  0.28710391     0.09400
H909        H  0.53920355  0.38858317  0.17525752     0.07400
Br910      Br  0.54974935  0.32413264  0.16574786    -0.03200
C911        C  0.97937775  0.11278398  0.24667966    -0.09800
C912        C  0.00001777  0.09796508  0.27200928     0.06300
C913        C  0.52218369  0.11431767  0.28685539    -0.03600
C914        C  0.52253224  0.14492200  0.27854078    -0.08100
C915        C  0.00131549  0.16003918  0.25494435     0.05500
C916        C  0.98010315  0.14321577  0.23734317    -0.03100
Br917      Br  0.95264342  0.15986525  0.19734800    -0.02800
H918        H  0.96265144  0.10050057  0.23354299     0.09400
H919        H  0.53913691  0.15722112  0.29211641     0.07400
Br920      Br  0.55166264  0.09696204  0.32184704    -0.03200
C921        C  0.97581264  0.39125262  0.49805346    -0.09800
C922        C  0.49894563  0.40503992  0.51392228     0.06300
C923        C  0.51837024  0.38825282  0.53933257    -0.03600
C924        C  0.51687090  0.35726167  0.54096759    -0.08100
C925        C  0.49547495  0.34275397  0.51966520     0.05500
C926        C  0.97373174  0.36047588  0.50117760    -0.03100
Br927      Br  0.94197152  0.34414958  0.47478449    -0.02800
H928        H  0.96020561  0.40393193  0.47969982     0.09400
H929        H  0.53277378  0.34389390  0.05662885     0.07400
Br930      Br  0.54694453  0.40636152  0.06935901    -0.03200
C931        C  0.98541078  0.11404956  0.96895546    -0.09800
C932        C  0.00354224  0.09882153  0.99848731     0.06300
C933        C  0.52491533  0.11430023  0.01880949    -0.03600
C934        C  0.52622390  0.14495436  0.01262870    -0.08100
C935        C  0.00653501  0.16067396  0.98670894     0.05500
C936        C  0.98688215  0.14459718  0.96261987    -0.03100
Br937      Br  0.96169544  0.16307406  0.92025852    -0.02800
H938        H  0.96940685  0.10233324  0.95193609     0.09400
H939        H  0.54159117  0.15696854  0.03102077     0.07400
Br940      Br  0.55092671  0.09623969  0.06033369    -0.03200
O941        O  0.52435187  0.25229924  0.92593407    -0.75100
O942        O  0.52483908  0.24980951  0.57070960    -0.75200
O943        O  0.52786764  0.20889167  0.48939251    -0.75200
O944        O  0.52156637  0.29371464  0.00727288    -0.75300
O945        O  0.97541968  0.29463029  0.01398958    -0.75200
O946        O  0.98164308  0.20974122  0.49563707    -0.75200
O947        O  0.97874154  0.25042441  0.57742532    -0.75100
O948        O  0.97821646  0.25355194  0.93271674    -0.75200
Ni949      Ni  0.52601594  0.25054617  0.99816088     1.25400
Ni950      Ni  0.97701014  0.25258464  0.50535014     1.25400
C951        C  0.00129140  0.25338216  0.90518271     0.87100
C952        C  0.00179287  0.24943437  0.59816520     0.87000
C953        C  0.50566246  0.19520585  0.48932401     0.87000
C954        C  0.49755292  0.30843597  0.01314349     0.87200
O955        O  0.52473919  0.24594132  0.67511146    -0.75100
O956        O  0.52448146  0.25079981  0.82088351    -0.75200
O957        O  0.52366874  0.20514990  0.74795931    -0.75200
O958        O  0.52532035  0.29130492  0.74792296    -0.75300
O959        O  0.97923721  0.29681014  0.75499042    -0.75200
O960        O  0.97752260  0.21082493  0.75521263    -0.75200
O961        O  0.97829443  0.25626664  0.82816287    -0.75100
O962        O  0.97854731  0.25127003  0.68233363    -0.75200
Ni963      Ni  0.52614938  0.24809493  0.74776454     1.25400
Ni964      Ni  0.97681753  0.25397126  0.75547346     1.25400
C965        C  0.00169953  0.24860178  0.65449804     0.87100
C966        C  0.00135200  0.25372102  0.84877163     0.87000
C967        C  0.00019462  0.19369379  0.75249232     0.87000
C968        C  0.00262635  0.30833932  0.74961275     0.87200
O969        O  0.57443656  0.47185564  0.96847506    -0.81600
O970        O  0.93970999  0.48986955  0.97829397    -0.66300
O971        O  0.51744453  0.99750935  0.96174888    -1.12900
C972        C  0.49872579  0.02561437  0.61871428     1.05300
O973        O  0.92709284  0.03350287  0.52304180    -0.79500
O974        O  0.97249144  0.06549785  0.51726305    -0.67100
Ni975      Ni  0.54306917  0.46409641  0.93203164     1.34900
C976        C  0.99797941  0.07048564  0.51017942     0.84000
O977        O  0.97577808  0.48139333  0.90128715    -0.80000
O978        O  0.51425977  0.45447148  0.89236101    -0.90300
C979        C  0.91990737  0.01050710  0.99726131     0.83600
O980        O  0.52973978  0.43908266  0.98152939    -0.68500
O981        O  0.98457067  0.04844778  0.60732249    -0.87800
C982        C  0.50459944  0.43356945  0.99191804     0.84400
C983        C  0.99966518  0.47685489  0.88054996     1.06000
H984        H  0.97579742  0.48938336  0.54955111     0.37800
O985        O  0.98175783  0.50660606  0.53377210    -1.10400
O986        O  0.51799753  0.05161337  0.51810711    -0.67100
Ni987      Ni  0.52158456  0.00950375  0.53101861     1.26300
O988        O  0.98377951  0.45116121  0.98292065    -0.67300
O989        O  0.52302399  0.02114369  0.59941821    -0.79600
C990        C  0.58056481  0.49219695  0.50530002     0.83800
O991        O  0.56107277  0.01190793  0.52453452    -0.66800
Ni992      Ni  0.95703860  0.03999873  0.56390133     1.27400
Ni993      Ni  0.97878560  0.49320321  0.96911760     1.26100
H994        H  0.52204155  0.01566806  0.94720832     0.38400
O995        O  0.56940894  0.48068922  0.68424037    -0.81600
O996        O  0.93606570  0.49125921  0.74253276    -0.66300
O997        O  0.51317495  0.00570768  0.70845993    -1.12900
C998        C  0.51103704  0.00326367  0.86544959     1.05300
O999        O  0.92727522  0.02300601  0.80849832    -0.79500
O1000       O  0.97120248  0.05775462  0.79549153    -0.67100
Ni1001     Ni  0.53333501  0.47805168  0.65900592     1.34900
C1002       C  0.99541813  0.06588905  0.78412182     0.84000
O1003       O  0.96290439  0.50271934  0.65983177    -0.80000
O1004       O  0.49921228  0.47480391  0.63123869    -0.90300
C1005       C  0.91888430  0.00682126  0.77275568     0.83600
O1006       O  0.52656760  0.44496452  0.69808165    -0.68500
O1007       O  0.99684274  0.02809158  0.86476828    -0.87800
C1008       C  0.50289208  0.43620241  0.71169090     0.84400
C1009       C  0.98468343  0.49950002  0.63187368     1.06000
H1010       H  0.98225282  0.47589364  0.79761563     0.37800
O1011       O  0.98427545  0.49612561  0.78879145    -1.10400
O1012       O  0.51726662  0.04749945  0.78283828    -0.67100
Ni1013     Ni  0.52326352  0.00325053  0.77270710     1.26300
O1014       O  0.98060813  0.45406269  0.71436263    -0.67300
O1015       O  0.53307607  0.99914917  0.83815787    -0.79600
C1016       C  0.57805604  0.49575552  0.72098158     0.83800
O1017       O  0.56132610  0.00914569  0.75588702    -0.66800
Ni1018     Ni  0.96304543  0.02529003  0.83547107     1.27400
Ni1019     Ni  0.97366314  0.49828932  0.72477936     1.26100
H1020       H  0.51545888  0.02607732  0.70049686     0.38400
O1021       O  0.75118982  0.47521166  0.92153382    -0.75100
O1022       O  0.75542076  0.47575630  0.56588488    -0.75200
O1023       O  0.71459106  0.47530060  0.50166714    -0.75200
O1024       O  0.79396585  0.47686083  0.48526779    -0.75300
O1025       O  0.78636816  0.02933986  0.98655901    -0.75200
O1026       O  0.70709629  0.02717950  0.00281832    -0.75200
O1027       O  0.74956605  0.02737376  0.56747084    -0.75100
O1028       O  0.74531234  0.02803033  0.92232692    -0.75200
Ni1029     Ni  0.75441334  0.47420276  0.49323220     1.25400
Ni1030     Ni  0.74655780  0.03007785  0.99496063     1.25400
C1031       C  0.74803160  0.50007600  0.90063492     0.87100
C1032       C  0.75307915  0.50067216  0.59370184     0.87000
C1033       C  0.69901508  0.50009749  0.50796369     0.87000
C1034       C  0.80371454  0.50118806  0.98533385     0.87200
O1035       O  0.75397141  0.47532787  0.67075292    -0.75100
O1036       O  0.74890323  0.47490589  0.81667945    -0.75200
O1037       O  0.71155125  0.47468879  0.74375179    -0.75200
O1038       O  0.79087623  0.47530375  0.74330713    -0.75300
O1039       O  0.78622566  0.02810596  0.74486827    -0.75200
O1040       O  0.70698923  0.02685916  0.74575325    -0.75200
O1041       O  0.74431320  0.02766627  0.81787028    -0.75100
O1042       O  0.74922108  0.02735990  0.67213404    -0.75200
Ni1043     Ni  0.75140681  0.47330291  0.74339288     1.25400
Ni1044     Ni  0.74650513  0.02924050  0.74529975     1.25400
C1045       C  0.75238716  0.50043481  0.65019102     0.87100
C1046       C  0.74674976  0.49990143  0.84440897     0.87000
C1047       C  0.69619933  0.49956618  0.74622322     0.87000
C1048       C  0.80154010  0.50050639  0.74862101     0.87200
C1049       C  0.65674521  0.47524254  0.71086931    -0.09800
C1050       C  0.66583737  0.49898133  0.74082536     0.06300
C1051       C  0.64587596  0.02301371  0.76089239    -0.03600
C1052       C  0.61764407  0.02104844  0.75424675    -0.08100
C1053       C  0.60853114  0.49665809  0.72526679     0.05500
C1054       C  0.62862389  0.47389761  0.70272794    -0.03100
Br1055     Br  0.61947043  0.43948912  0.66224126    -0.02800
H1056       H  0.67171683  0.45760510  0.69308598     0.09400
H1057       H  0.60267765  0.03863016  0.77220869     0.07400
Br1058     Br  0.65517363  0.05585795  0.80466294    -0.03200
C1059       C  0.88022182  0.48322437  0.73460169    -0.09800
C1060       C  0.88846086  0.00581342  0.76722289     0.06300
C1061       C  0.86762176  0.02590444  0.79484519    -0.03600
C1062       C  0.83974584  0.02491161  0.78508518    -0.08100
C1063       C  0.83160429  0.00396349  0.74894866     0.05500
C1064       C  0.85214818  0.48161530  0.72637477    -0.03100
Br1065     Br  0.84330801  0.45366947  0.67357112    -0.02800
H1066       H  0.89555314  0.46823432  0.71143612     0.09400
H1067       H  0.82414027  0.04038589  0.80673163     0.07400
Br1068     Br  0.87489899  0.05566478  0.84619933    -0.03200
C1069       C  0.61944853  0.02347080  0.51616659    -0.09800
C1070       C  0.61010171  0.49447822  0.51406469     0.06300
C1071       C  0.62807942  0.46885648  0.00890161    -0.03600
C1072       C  0.65645136  0.47155802  0.01069308    -0.08100
C1073       C  0.66818472  0.49937119  0.51304849     0.05500
C1074       C  0.64804690  0.02647913  0.51569250    -0.03100
Br1075     Br  0.65875488  0.06689372  0.52268731    -0.02800
H1076       H  0.60518155  0.04353486  0.51849127     0.09400
H1077       H  0.67013309  0.45114196  0.00974528     0.07400
Br1078     Br  0.61604901  0.42896755  0.00765049    -0.03200
C1079       C  0.88212768  0.47977271  0.97906074    -0.09800
C1080       C  0.89045058  0.00948804  0.98664855     0.06300
C1081       C  0.87322028  0.03561741  0.48454549    -0.03600
C1082       C  0.84491128  0.03280421  0.48151597    -0.08100
C1083       C  0.83286655  0.00550441  0.97815807     0.05500
C1084       C  0.85378015  0.47663758  0.97560133    -0.03100
Br1085     Br  0.84358883  0.43634917  0.96296011    -0.02800
H1086       H  0.89643284  0.45972468  0.97635391     0.09400
H1087       H  0.83110685  0.05318083  0.48330556     0.07400
Br1088     Br  0.88484024  0.07576517  0.48840180    -0.03200
C1089       C  0.97780560  0.35898856  0.74044658    -0.09800
C1090       C  0.00310804  0.34149504  0.74313279     0.06300
C1091       C  0.52799787  0.35592347  0.73601198    -0.03600
C1092       C  0.52701769  0.38647909  0.72704517    -0.08100
C1093       C  0.50179206  0.40388070  0.72358177     0.05500
C1094       C  0.97688987  0.38945068  0.73023180    -0.03100
Br1095     Br  0.94081176  0.40880700  0.72275043    -0.02800
H1096       H  0.95836422  0.34869374  0.74480412     0.09400
H1097       H  0.54653236  0.39657234  0.72196802     0.07400
Br1098     Br  0.56456459  0.33584727  0.73615775    -0.03200
C1099       C  0.97534377  0.11429724  0.75521195    -0.09800
C1100       C  0.99794865  0.09805528  0.77336029     0.06300
C1101       C  0.52164392  0.11346724  0.78267019    -0.03600
C1102       C  0.52219433  0.14405511  0.77396031    -0.08100
C1103       C  0.99933402  0.16046579  0.75679775     0.05500
C1104       C  0.97575020  0.14491902  0.74704490    -0.03100
Br1105     Br  0.94336015  0.16358796  0.72148492    -0.02800
H1106       H  0.95698420  0.10309503  0.74739098     0.09400
H1107       H  0.54036806  0.15536696  0.78256848     0.07400
Br1108     Br  0.55305281  0.09511701  0.81158563    -0.03200
C1109       C  0.97641970  0.38989315  0.99353405    -0.09800
C1110       C  0.49933028  0.40391543  0.00974882     0.06300
C1111       C  0.51859198  0.38749238  0.03593434    -0.03600
C1112       C  0.51697335  0.35655818  0.03871615    -0.08100
C1113       C  0.49567664  0.34177816  0.01748631     0.05500
C1114       C  0.97427004  0.35921964  0.99750238    -0.03100
Br1115     Br  0.94293570  0.34264659  0.96996580    -0.02800
H1116       H  0.96099446  0.40233165  0.97441587     0.09400
H1117       H  0.53285750  0.34434115  0.55805808     0.07400
Br1118     Br  0.54698622  0.40649276  0.57302492    -0.03200
C1119       C  0.98711849  0.11550284  0.46462732    -0.09800
C1120       C  0.00433051  0.10050325  0.49597852     0.06300
C1121       C  0.52478330  0.11614263  0.51886438    -0.03600
C1122       C  0.52637686  0.14665544  0.51265387    -0.08100
C1123       C  0.00754705  0.16215693  0.48490725     0.05500
C1124       C  0.98864378  0.14609738  0.45882786    -0.03100
Br1125     Br  0.96439051  0.16489562  0.41519042    -0.02800
H1126       H  0.97167711  0.10366170  0.44613173     0.09400
H1127       H  0.54096186  0.15882660  0.53290140     0.07400
Br1128     Br  0.54836732  0.09875518  0.56511009    -0.03200
O1129       O  0.52677096  0.75380265  0.42584158    -0.75100
O1130       O  0.52380942  0.74858651  0.07081926    -0.75200
O1131       O  0.52679639  0.70762734  0.98977257    -0.75200
O1132       O  0.52322080  0.79523735  0.50745966    -0.75300
O1133       O  0.97712518  0.79525425  0.51414368    -0.75200
O1134       O  0.98058516  0.70824460  0.99563966    -0.75200
O1135       O  0.97773568  0.74890798  0.07786854    -0.75100
O1136       O  0.98067353  0.75439475  0.43258605    -0.75200
Ni1137     Ni  0.52833670  0.75219511  0.49828917     1.25400
Ni1138     Ni  0.97589372  0.75113803  0.00563429     1.25400
C1139       C  0.00370487  0.75427810  0.40504462     0.87100
C1140       C  0.00087018  0.74809553  0.09844193     0.87000
C1141       C  0.50467061  0.69383284  0.98947250     0.87000
C1142       C  0.49900622  0.80946703  0.51325666     0.87200
O1143       O  0.52455993  0.74479868  0.17449503    -0.75100
O1144       O  0.52628958  0.75060097  0.31999320    -0.75200
O1145       O  0.52473023  0.70441134  0.24788851    -0.75200
O1146       O  0.52603440  0.79040834  0.24637937    -0.75300
O1147       O  0.97984566  0.79594588  0.25530457    -0.75200
O1148       O  0.97861821  0.70993136  0.25685901    -0.75200
O1149       O  0.98009990  0.75592454  0.32881121    -0.75100
O1150       O  0.97837167  0.75008599  0.18337260    -0.75200
Ni1151     Ni  0.52699872  0.74733334  0.24690943     1.25400
Ni1152     Ni  0.97764424  0.75311687  0.25645269     1.25400
C1153       C  0.00124102  0.74736528  0.15473982     0.87100
C1154       C  0.00341876  0.75383670  0.34862338     0.87000
C1155       C  0.00135633  0.69284668  0.25347220     0.87000
C1156       C  0.00323311  0.80729436  0.24860598     0.87200
O1157       O  0.57430045  0.97221708  0.47038476    -0.81600
O1158       O  0.93959537  0.99097333  0.47556392    -0.66300
O1159       O  0.52085430  0.49789486  0.46436923    -1.12900
C1160       C  0.50019822  0.52448279  0.11977691     1.05300
O1161       O  0.92738933  0.53201832  0.02685418    -0.79500
O1162       O  0.97283301  0.56403112  0.01849377    -0.67100
Ni1163     Ni  0.54341955  0.96471495  0.43276396     1.34900
C1164       C  0.99826090  0.56918957  0.01099617     0.84000
O1165       O  0.97654631  0.98188577  0.39983995    -0.80000
O1166       O  0.51508527  0.95517435  0.39210592    -0.90300
C1167       C  0.92281061  0.51234400  0.49133682     0.83600
O1168       O  0.52955013  0.93997093  0.48195348    -0.68500
O1169       O  0.98619521  0.54731807  0.10803880    -0.87800
C1170       C  0.50438555  0.93453930  0.49196449     0.84400
C1171       C  0.00066913  0.97763791  0.38021064     1.06000
H1172       H  0.97525927  0.98541865  0.05008153     0.37800
O1173       O  0.98032039  0.00317230  0.03481015    -1.10400
O1174       O  0.51836462  0.55051983  0.01900640    -0.67100
Ni1175     Ni  0.52216627  0.50837523  0.03109472     1.26300
O1176       O  0.98362047  0.95204119  0.48227349    -0.67300
O1177       O  0.52429515  0.51932354  0.09959986    -0.79600
C1178       C  0.57857118  0.99100494  0.99627666     0.83800
O1179       O  0.56147028  0.51126640  0.02329800    -0.66800
Ni1180     Ni  0.95799626  0.53872525  0.06613385     1.27400
Ni1181     Ni  0.97883178  0.99407777  0.46763041     1.26100
H1182       H  0.52618318  0.51541441  0.44860690     0.38400
O1183       O  0.57046095  0.97987112  0.18457992    -0.81600
O1184       O  0.93715093  0.99077440  0.24486846    -0.66300
O1185       O  0.51538685  0.50476877  0.21014660    -1.12900
C1186       C  0.51617121  0.50143677  0.36681149     1.05300
O1187       O  0.93056862  0.52174795  0.31536217    -0.79500
O1188       O  0.97453655  0.55662505  0.30043808    -0.67100
Ni1189     Ni  0.53425624  0.97559681  0.16090129     1.34900
C1190       C  0.99850774  0.56480191  0.28705322     0.84000
O1191       O  0.96389196  0.99941120  0.16065866    -0.80000
O1192       O  0.50007062  0.97071771  0.13416675    -0.90300
C1193       C  0.92168595  0.50636925  0.27906066     0.83600
O1194       O  0.52788277  0.94400861  0.20338386    -0.68500
O1195       O  0.00173009  0.52624075  0.36709083    -0.87800
C1196       C  0.50419007  0.93523775  0.21695302     0.84400
C1197       C  0.98563567  0.99522496  0.13269430     1.06000
H1198       H  0.98289958  0.97680327  0.29957072     0.37800
O1199       O  0.98531574  0.99676634  0.28991854    -1.10400
O1200       O  0.52046370  0.54643267  0.28427388    -0.67100
Ni1201     Ni  0.52648544  0.50216224  0.27361878     1.26300
O1202       O  0.98174016  0.95282789  0.21880525    -0.67300
O1203       O  0.53768445  0.49758955  0.33816350    -0.79600
C1204       C  0.57919896  0.99553206  0.22053535     0.83800
O1205       O  0.56421990  0.50816787  0.25458767    -0.66800
Ni1206     Ni  0.96715766  0.52377412  0.34006783     1.27400
Ni1207     Ni  0.97473322  0.99718730  0.22598439     1.26100
H1208       H  0.51768287  0.52504913  0.20169766     0.38400
O1209       O  0.75157830  0.97779876  0.41533261    -0.75100
O1210       O  0.75346782  0.97875565  0.06070112    -0.75200
O1211       O  0.71248759  0.97728610  0.99656701    -0.75200
O1212       O  0.79137130  0.97943822  0.98011503    -0.75300
O1213       O  0.78888171  0.52675675  0.49208080    -0.75200
O1214       O  0.70986946  0.52520615  0.50914289    -0.75200
O1215       O  0.75058982  0.52594927  0.07264932    -0.75100
O1216       O  0.74772152  0.52585562  0.42815875    -0.75200
Ni1217     Ni  0.75210869  0.97667279  0.98807937     1.25400
Ni1218     Ni  0.74917787  0.52760741  0.50086334     1.25400
C1219       C  0.74864123  0.00287251  0.39489917     0.87100
C1220       C  0.75143667  0.00383789  0.08808461     0.87000
C1221       C  0.69659312  0.00180544  0.00204083     0.87000
C1222       C  0.80343833  0.00344889  0.48098682     0.87200
O1223       O  0.75466001  0.97887967  0.16494518    -0.75100
O1224       O  0.75060851  0.97826371  0.31054540    -0.75200
O1225       O  0.71296750  0.97799043  0.23852995    -0.75200
O1226       O  0.79235225  0.97935775  0.23675024    -0.75300
O1227       O  0.78837607  0.52696644  0.25116293    -0.75200
O1228       O  0.70919747  0.52481959  0.25038228    -0.75200
O1229       O  0.74621075  0.52580238  0.32353926    -0.75100
O1230       O  0.75141826  0.52603998  0.17771086    -0.75200
Ni1231     Ni  0.75281376  0.97689904  0.23743246     1.25400
Ni1232     Ni  0.74861589  0.52763050  0.25091462     1.25400
C1233       C  0.75225072  0.00391704  0.14439291     0.87100
C1234       C  0.74803625  0.00313254  0.33855415     0.87000
C1235       C  0.69743371  0.00275706  0.24106389     0.87000
C1236       C  0.80289295  0.00464602  0.24235434     0.87200
C1237       C  0.65801285  0.97688451  0.20894775    -0.09800
C1238       C  0.66703935  0.00184509  0.23602246     0.06300
C1239       C  0.64822252  0.52190491  0.25897063    -0.03600
C1240       C  0.62016664  0.51994464  0.25118683    -0.08100
C1241       C  0.60964948  0.99763020  0.22303112     0.05500
C1242       C  0.62990878  0.97479306  0.20154559    -0.03100
Br1243     Br  0.62104551  0.93964514  0.16259204    -0.02800
H1244       H  0.67304319  0.95891453  0.19251386     0.09400
H1245       H  0.60520405  0.53801306  0.26743388     0.07400
Br1246     Br  0.65697389  0.55658227  0.29913127    -0.03200
C1247       C  0.88142092  0.98544546  0.23361869    -0.09800
C1248       C  0.89113819  0.50532442  0.27412102     0.06300
C1249       C  0.87052186  0.52694070  0.29848284    -0.03600
C1250       C  0.84254685  0.52568782  0.28893923    -0.08100
C1251       C  0.83412673  0.50319511  0.25558340     0.05500
C1252       C  0.85358272  0.98468996  0.22335229    -0.03100
Br1253     Br  0.84539658  0.95604673  0.17109225    -0.02800
H1254       H  0.89667083  0.96934265  0.21252210     0.09400
H1255       H  0.82714874  0.54236999  0.30826161     0.07400
Br1256     Br  0.87868517  0.55962913  0.34360110    -0.03200
C1257       C  0.61988963  0.52311118  0.01356976    -0.09800
C1258       C  0.60819228  0.99360201  0.00382944     0.06300
C1259       C  0.62811090  0.96922383  0.50886902    -0.03600
C1260       C  0.65658653  0.97212670  0.50802133    -0.08100
C1261       C  0.66585235  0.00012801  0.00600932     0.05500
C1262       C  0.64843040  0.52594047  0.01519189    -0.03100
Br1263     Br  0.65943862  0.56631321  0.01973083    -0.02800
H1264       H  0.60582766  0.54321919  0.01396068     0.09400
H1265       H  0.67051263  0.95179400  0.50520689     0.07400
Br1266     Br  0.61649205  0.92915322  0.50814793    -0.03200
C1267       C  0.88168247  0.98133771  0.47655112    -0.09800
C1268       C  0.89329492  0.50990194  0.48214176     0.06300
C1269       C  0.87309560  0.53397435  0.98981901    -0.03600
C1270       C  0.84485080  0.53089213  0.98686433    -0.08100
C1271       C  0.83547056  0.50359158  0.48082793     0.05500
C1272       C  0.85327636  0.97844280  0.47345492    -0.03100
Br1273     Br  0.84265147  0.93804593  0.46481771    -0.02800
H1274       H  0.89575670  0.96117474  0.47519996     0.09400
H1275       H  0.83086202  0.55117418  0.98975204     0.07400
Br1276     Br  0.88425419  0.57430081  0.99466901    -0.03200
C1277       C  0.98220678  0.86076979  0.26461311    -0.09800
C1278       C  0.00385665  0.84012926  0.24184083     0.06300
C1279       C  0.52516450  0.85126698  0.21113338    -0.03600
C1280       C  0.52465925  0.88202427  0.20446133    -0.08100
C1281       C  0.50316279  0.90281984  0.22723356     0.05500
C1282       C  0.98173441  0.89173940  0.25791402    -0.03100
Br1283     Br  0.95197489  0.91751452  0.29384416    -0.02800
H1284       H  0.96563261  0.85282426  0.28831952     0.09400
H1285       H  0.54113417  0.88960578  0.18007955     0.07400
Br1286     Br  0.55471424  0.82577975  0.17372583    -0.03200
C1287       C  0.97657580  0.61366240  0.26281604    -0.09800
C1288       C  0.00052302  0.59701469  0.27548921     0.06300
C1289       C  0.52508375  0.61204783  0.27819881    -0.03600
C1290       C  0.52497642  0.64270143  0.26940946    -0.08100
C1291       C  0.00078073  0.65954086  0.25808200     0.05500
C1292       C  0.97644499  0.64424046  0.25406770    -0.03100
Br1293     Br  0.94214107  0.66301912  0.23564636    -0.02800
H1294       H  0.95753673  0.60279711  0.25964492     0.09400
H1295       H  0.54392802  0.65365674  0.27303469     0.07400
Br1296     Br  0.55916193  0.59306187  0.29709606    -0.03200
C1297       C  0.97681644  0.89043438  0.49294504    -0.09800
C1298       C  0.49924287  0.90495550  0.51008048     0.06300
C1299       C  0.51860615  0.88884203  0.53661652    -0.03600
C1300       C  0.51740724  0.85789449  0.53935402    -0.08100
C1301       C  0.49659634  0.84272122  0.51744842     0.05500
C1302       C  0.97525359  0.85964207  0.49648592    -0.03100
Br1303     Br  0.94511389  0.84203041  0.46649426    -0.02800
H1304       H  0.96148792  0.90253774  0.47315086     0.09400
H1305       H  0.53204618  0.84359361  0.05406736     0.07400
Br1306     Br  0.54749310  0.90522556  0.06243652    -0.03200
C1307       C  0.98699634  0.61383232  0.96493101    -0.09800
C1308       C  0.00445563  0.59911209  0.99618496     0.06300
C1309       C  0.52520390  0.61488298  0.01792988    -0.03600
C1310       C  0.52608523  0.64553558  0.01236708    -0.08100
C1311       C  0.00686384  0.66079267  0.98508537     0.05500
C1312       C  0.98836602  0.64438278  0.95863390    -0.03100
Br1313     Br  0.96515941  0.66241706  0.91266087    -0.02800
H1314       H  0.97169854  0.60172848  0.94649230     0.09400
H1315       H  0.54073841  0.65787838  0.03215140     0.07400
Br1316     Br  0.55096450  0.59725044  0.06037075    -0.03200
O1317       O  0.52352153  0.75231057  0.92627355    -0.75100
O1318       O  0.52645343  0.75026502  0.57107744    -0.75200
O1319       O  0.53034023  0.70923420  0.48953480    -0.75200
O1320       O  0.52046414  0.79352502  0.00743688    -0.75300
O1321       O  0.97433812  0.79402980  0.01479314    -0.75200
O1322       O  0.98416584  0.70948336  0.49489912    -0.75200
O1323       O  0.98041210  0.75020646  0.57697334    -0.75100
O1324       O  0.97739726  0.75333951  0.93300395    -0.75200
Ni1325     Ni  0.52524209  0.75052990  0.99835654     1.25400
Ni1326     Ni  0.97902410  0.75234424  0.50493284     1.25400
C1327       C  0.00048638  0.75330543  0.90550331     0.87100
C1328       C  0.00329663  0.74960634  0.59815827     0.87000
C1329       C  0.50833784  0.69525100  0.48867847     0.87000
C1330       C  0.49636458  0.80799814  0.01335832     0.87200
O1331       O  0.52559074  0.74619841  0.67581635    -0.75100
O1332       O  0.52404146  0.75098548  0.82168071    -0.75200
O1333       O  0.52375800  0.70530213  0.74859655    -0.75200
O1334       O  0.52543749  0.79164253  0.74894267    -0.75300
O1335       O  0.97932491  0.79682519  0.75534739    -0.75200
O1336       O  0.97761827  0.71086476  0.75437644    -0.75200
O1337       O  0.97785328  0.75606568  0.82795398    -0.75100
O1338       O  0.97940906  0.75152482  0.68185887    -0.75200
Ni1339     Ni  0.52631102  0.74832422  0.74858159     1.25400
Ni1340     Ni  0.97697829  0.75400042  0.75509898     1.25400
C1341       C  0.00276708  0.74885372  0.65457826     0.87100
C1342       C  0.00075743  0.75369017  0.84908003     0.87000
C1343       C  0.00027080  0.69378232  0.75240740     0.87000
C1344       C  0.00263368  0.80855392  0.75080484     0.87200
O1345       O  0.57280382  0.97096498  0.96376116    -0.81600
O1346       O  0.93782093  0.98983011  0.97765050    -0.66300
O1347       O  0.51924775  0.49805622  0.96346477    -1.12900
C1348       C  0.49807669  0.52631934  0.61938286     1.05300
O1349       O  0.92889709  0.53529995  0.51753433    -0.79500
O1350       O  0.97459597  0.56683118  0.51669925    -0.67100
Ni1351     Ni  0.54084283  0.96355406  0.92879351     1.34900
C1352       C  0.00029712  0.57090352  0.50938911     0.84000
O1353       O  0.97350402  0.98204346  0.89987838    -0.80000
O1354       O  0.51145639  0.95423303  0.89052690    -0.90300
C1355       C  0.92144894  0.51018192  0.99787526     0.83600
O1356       O  0.52794270  0.93850811  0.97836635    -0.68500
O1357       O  0.98393651  0.54913168  0.60779004    -0.87800
C1358       C  0.50287298  0.93286598  0.98904246     0.84400
C1359       C  0.99735686  0.97701356  0.87910915     1.06000
H1360       H  0.97551151  0.98808744  0.54937164     0.37800
O1361       O  0.98105471  0.00571807  0.53429312    -1.10400
O1362       O  0.51978775  0.55150571  0.51766040    -0.67100
Ni1363     Ni  0.52224135  0.50963772  0.53211041     1.26300
O1364       O  0.98191513  0.95045487  0.98045851    -0.67300
O1365       O  0.52254681  0.52201991  0.60056764    -0.79600
C1366       C  0.57970522  0.99286010  0.50210224     0.83800
O1367       O  0.56186871  0.51136991  0.52726344    -0.66800
Ni1368     Ni  0.95763024  0.54121987  0.56150943     1.27400
Ni1369     Ni  0.97693947  0.99284255  0.96794200     1.26100
H1370       H  0.52385514  0.51595456  0.94810618     0.38400
O1371       O  0.56964234  0.98037955  0.68438949    -0.81600
O1372       O  0.93587047  0.99160757  0.74032343    -0.66300
O1373       O  0.51296651  0.50609886  0.70920683    -1.12900
C1374       C  0.51255545  0.50346083  0.86634792     1.05300
O1375       O  0.92766005  0.52185737  0.81170252    -0.79500
O1376       O  0.97106624  0.55779949  0.79812616    -0.67100
Ni1377     Ni  0.53368008  0.97745638  0.65882419     1.34900
C1378       C  0.99512926  0.56614868  0.78589140     0.84000
O1379       O  0.96326257  0.00218810  0.65804498    -0.80000
O1380       O  0.49971025  0.97413954  0.63069577    -0.90300
C1381       C  0.91915991  0.50574611  0.77590739     0.83600
O1382       O  0.52654416  0.94466352  0.69848429    -0.68500
O1383       O  0.99780187  0.52801426  0.86612425    -0.87800
C1384       C  0.50273606  0.93606581  0.71179689     0.84400
C1385       C  0.98529367  0.99887601  0.63094567     1.06000
H1386       H  0.98120617  0.97606114  0.79611897     0.37800
O1387       O  0.98366387  0.99621362  0.78732821    -1.10400
O1388       O  0.51711890  0.54788847  0.78354977    -0.67100
Ni1389     Ni  0.52363348  0.50372419  0.77308179     1.26300
O1390       O  0.98045741  0.95388548  0.71340757    -0.67300
O1391       O  0.53424586  0.49977315  0.83810397    -0.79600
C1392       C  0.57808589  0.99531320  0.72150220     0.83800
O1393       O  0.56142228  0.51006493  0.75507566    -0.66800
Ni1394     Ni  0.96372313  0.52478868  0.83767914     1.27400
Ni1395     Ni  0.97363231  0.99817508  0.72317460     1.26100
H1396       H  0.51496780  0.52651057  0.70120725     0.38400
O1397       O  0.75043221  0.97805245  0.91588112    -0.75100
O1398       O  0.75441945  0.97739158  0.56028057    -0.75200
O1399       O  0.71356188  0.97687883  0.49637361    -0.75200
O1400       O  0.79264524  0.97827217  0.47962265    -0.75300
O1401       O  0.78813261  0.52592633  0.99094917    -0.75200
O1402       O  0.70912213  0.52548902  0.00931046    -0.75200
O1403       O  0.75069334  0.52573694  0.57311677    -0.75100
O1404       O  0.74658545  0.52519379  0.92785018    -0.75200
Ni1405     Ni  0.75323603  0.97584277  0.48756917     1.25400
Ni1406     Ni  0.74849369  0.52736119  0.00041085     1.25400
C1407       C  0.74735074  0.00293384  0.89500395     0.87100
C1408       C  0.75218785  0.00234930  0.58804599     0.87000
C1409       C  0.69794089  0.00159188  0.50314960     0.87000
C1410       C  0.80207546  0.00464137  0.98109671     0.87200
O1411       O  0.75387900  0.97736063  0.66535520    -0.75100
O1412       O  0.74925765  0.97766603  0.81120690    -0.75200
O1413       O  0.71190058  0.97683249  0.73911259    -0.75200
O1414       O  0.79102677  0.97801908  0.73751825    -0.75300
O1415       O  0.78625332  0.52539408  0.75126959    -0.75200
O1416       O  0.70703716  0.52470942  0.75103883    -0.75200
O1417       O  0.74423028  0.52490202  0.82377789    -0.75100
O1418       O  0.74958415  0.52532756  0.67813943    -0.75200
Ni1419     Ni  0.75164244  0.97573896  0.73804345     1.25400
Ni1420     Ni  0.74657047  0.52679740  0.75126651     1.25400
C1421       C  0.75195384  0.00234064  0.64449466     0.87100
C1422       C  0.74674488  0.00272901  0.83872350     0.87000
C1423       C  0.69635274  0.00156068  0.74186769     0.87000
C1424       C  0.80159216  0.00327595  0.74251404     0.87200
C1425       C  0.65683119  0.97601240  0.70992266    -0.09800
C1426       C  0.66595383  0.00046097  0.73805956     0.06300
C1427       C  0.64581029  0.52177442  0.76310225    -0.03600
C1428       C  0.61768170  0.52033250  0.75537112    -0.08100
C1429       C  0.60851236  0.99673589  0.72552637     0.05500
C1430       C  0.62862347  0.97381910  0.70374161    -0.03100
Br1431     Br  0.61931481  0.93771927  0.66807938    -0.02800
H1432       H  0.67181269  0.95829161  0.69244133     0.09400
H1433       H  0.60279750  0.53797482  0.77339680     0.07400
Br1434     Br  0.65491669  0.55477621  0.80668752    -0.03200
C1435       C  0.88003761  0.98474017  0.73104891    -0.09800
C1436       C  0.88866364  0.50398096  0.77135205     0.06300
C1437       C  0.86771374  0.52317487  0.80044689    -0.03600
C1438       C  0.83974372  0.52168591  0.79165418    -0.08100
C1439       C  0.83159387  0.50117666  0.75485766     0.05500
C1440       C  0.85207000  0.98352840  0.72205691    -0.03100
Br1441     Br  0.84336102  0.95448480  0.67079763    -0.02800
H1442       H  0.89530481  0.96903559  0.70912742     0.09400
H1443       H  0.82408679  0.53657213  0.81433839     0.07400
Br1444     Br  0.87499519  0.55256563  0.85230834    -0.03200
C1445       C  0.62065230  0.52274983  0.51588729    -0.09800
C1446       C  0.60924723  0.99507329  0.51087547     0.06300
C1447       C  0.62738589  0.96805640  0.00131361    -0.03600
C1448       C  0.65571588  0.97149369  0.00228812    -0.08100
C1449       C  0.66719562  0.00049219  0.50953220     0.05500
C1450       C  0.64932223  0.52548910  0.51464730    -0.03100
Br1451     Br  0.66052250  0.56560909  0.51163284    -0.02800
H1452       H  0.60663527  0.54279243  0.51520092     0.09400
H1453       H  0.66991079  0.95136865  0.99935599     0.07400
Br1454     Br  0.61627555  0.92774620  0.99817951    -0.03200
C1455       C  0.87998768  0.98151967  0.97697936    -0.09800
C1456       C  0.89199467  0.50816368  0.98799299     0.06300
C1457       C  0.87432913  0.53544977  0.48125250    -0.03600
C1458       C  0.84592332  0.53207684  0.48049980    -0.08100
C1459       C  0.83447844  0.50245095  0.98157448     0.05500
C1460       C  0.85165559  0.97923233  0.97235658    -0.03100
Br1461     Br  0.84086164  0.93927352  0.95831219    -0.02800
H1462       H  0.89381690  0.96111033  0.97445283     0.09400
H1463       H  0.83188173  0.55217223  0.48081157     0.07400
Br1464     Br  0.88565735  0.57566279  0.48047428    -0.03200
C1465       C  0.97787225  0.85822873  0.73608219    -0.09800
C1466       C  0.00278408  0.84180133  0.74512089     0.06300
C1467       C  0.52709365  0.85741003  0.74548194    -0.03600
C1468       C  0.52618833  0.88778817  0.73524505    -0.08100
C1469       C  0.50147134  0.90399670  0.72478917     0.05500
C1470       C  0.97693754  0.88870939  0.72610061    -0.03100
Br1471     Br  0.94148179  0.90704715  0.71229806    -0.02800
H1472       H  0.95884470  0.84710697  0.73547718     0.09400
H1473       H  0.54526767  0.89884271  0.73553918     0.07400
Br1474     Br  0.56244632  0.83943242  0.76050810    -0.03200
C1475       C  0.97501969  0.61453548  0.75649765    -0.09800
C1476       C  0.99750573  0.59837240  0.77514405     0.06300
C1477       C  0.52132388  0.61371711  0.78392119    -0.03600
C1478       C  0.52196699  0.64425053  0.77493001    -0.08100
C1479       C  0.99929939  0.66057050  0.75706380     0.05500
C1480       C  0.97576862  0.64497046  0.74701742    -0.03100
Br1481     Br  0.94429938  0.66312016  0.71799587    -0.02800
H1482       H  0.95668350  0.60330371  0.74862808     0.09400
H1483       H  0.54017567  0.65552974  0.78342447     0.07400
Br1484     Br  0.55312312  0.59516504  0.81144207    -0.03200
C1485       C  0.97486214  0.88899297  0.99193888    -0.09800
C1486       C  0.49796256  0.90316323  0.00703957     0.06300
C1487       C  0.51774244  0.88685112  0.03243177    -0.03600
C1488       C  0.51597252  0.85611293  0.03654650    -0.08100
C1489       C  0.49435439  0.84124010  0.01681853     0.05500
C1490       C  0.97282157  0.85835501  0.99667190    -0.03100
Br1491     Br  0.94162469  0.84116940  0.96957031    -0.02800
H1492       H  0.95922139  0.90124305  0.97302776     0.09400
H1493       H  0.53322703  0.84550125  0.55765648     0.07400
Br1494     Br  0.54686042  0.90786009  0.57016432    -0.03200
C1495       C  0.99013498  0.61563691  0.46279219    -0.09800
C1496       C  0.00743814  0.60047879  0.49384279     0.06300
C1497       C  0.52865223  0.61575329  0.51507171    -0.03600
C1498       C  0.52991376  0.64644600  0.50983175    -0.08100
C1499       C  0.01064026  0.66217680  0.48324198     0.05500
C1500       C  0.99192395  0.64615490  0.45668798    -0.03100
Br1501     Br  0.96878846  0.66477178  0.41112447    -0.02800
H1502       H  0.97451562  0.60394256  0.44455721     0.09400
H1503       H  0.54483888  0.65844905  0.52947284     0.07400
Br1504     Br  0.55456603  0.59735964  0.55638218    -0.03200
loop_ 
_geom_bond_atom_site_label_1 
_geom_bond_atom_site_label_2 
_geom_bond_distance 
_geom_bond_site_symmetry_2 
_ccdc_geom_bond_type 
O1           Ni9   1.963       .  S
O1          C763   1.290       .  A
O2         Ni197   1.956   1_554  S
O2          C764   1.288       .  A
O3         Ni197   1.921       .  S
O3           C13   1.281       .  A
O4           Ni9   1.919       .  S
O4           C14   1.282   1_455  A
O5         Ni198   1.913       .  S
O5          C766   1.279       .  A
O6          Ni10   1.914   1_556  S
O6          C765   1.280       .  A
O7          Ni10   1.958       .  S
O7           C12   1.289       .  A
O8         Ni198   1.959       .  S
O8           C11   1.289       .  A
Ni9         O190   1.960       .  S
Ni9         O191   1.915       .  S
Ni9        Ni950   2.381   1_455  S
Ni10        O193   1.915       .  S
Ni10        O196   1.958   1_554  S
Ni10       Ni949   2.380   1_554  S
C11         O753   1.290       .  A
C11          C26   1.522       .  S
C12         O754   1.288       .  A
C12          C25   1.517       .  S
C13         O758   1.280   1_455  A
C13         C935   1.478       .  S
C14         O757   1.279       .  A
C14         C173   1.482       .  S
O15         Ni23   1.957       .  S
O15         C777   1.288       .  A
O16         Ni23   1.959       .  S
O16         C778   1.289       .  A
O17         Ni23   1.930       .  S
O17         C779   1.283       .  A
O18         Ni23   1.924       .  S
O18         C780   1.283       .  A
O19         Ni24   1.933       .  S
O19          C28   1.283       .  A
O20         Ni24   1.932       .  S
O20          C27   1.284       .  A
O21         Ni24   1.962       .  S
O21          C26   1.290       .  A
O22         Ni24   1.956       .  S
O22          C25   1.288       .  A
Ni23       Ni776   2.378   1_455  S
Ni24       Ni775   2.378       .  S
C25         O767   1.288       .  A
C26         O768   1.289       .  A
C27         O769   1.283       .  A
C27         C163   1.497       .  S
C28         O770   1.283       .  A
C28         C150   1.496       .  S
O29         Ni35   1.911       .  S
O29         C238   1.268       .  A
O30         Ni53   1.911       .  S
O30         C415   1.271       .  A
O31          H54   0.962   1_565  S
O31        Ni411   1.931       .  S
O31       Ni1181   1.988   1_455  S
O31        Ni235   1.861   1_565  S
C32          O49   1.243   1_655  A
C32         O793   1.257       .  A
C32        C1197   1.452   1_545  S
O33         Ni52   1.923       .  S
O33         C227   1.271   1_554  A
O34         Ni52   1.908       .  S
O34          C36   1.274       .  A
Ni35         O38   1.882       .  S
Ni35         O40   1.906       .  S
Ni35        O407   1.933       .  S
C36         O798   1.277       .  A
C36         C180   1.480   1_554  S
O37         Ni53   1.884       .  S
O37          C43   1.238       .  A
O38         C795   1.254       .  A
C39         O406   1.270   1_545  A
C39         O221   1.270       .  A
C39         C140   1.483       .  S
O40          C42   1.274       .  A
O41         Ni52   1.886       .  S
O41         C784   1.257       .  A
C42         O800   1.282   1_455  A
C42         C170   1.480   1_455  S
C43         O790   1.254       .  A
C43        C1186   1.452       .  S
H44          O45   0.961       .  S
O45        Ni241   1.851   1_554  S
O45       Ni1175   1.976       .  S
O45        Ni428   1.930       .  S
O46         Ni47   1.944       .  S
O46         C788   1.277   1_455  A
Ni47         O51   1.913       .  S
Ni47         O49   1.883       .  S
Ni47        O219   1.863   1_544  S
Ni47       O1173   1.976   1_455  S
O48         Ni53   1.951       .  S
O48         C794   1.282       .  A
C50         O217   1.270   1_554  A
C50         O427   1.270       .  A
C50         C130   1.479       .  S
O51         C426   1.270   1_544  A
Ni52        O421   1.928       .  S
Ni53       O1159   1.988       .  S
Ni53        O233   1.846       .  S
O55         Ni61   1.943       .  S
O55          C76   1.276       .  A
O56         Ni79   1.899       .  S
O56         C441   1.267       .  A
O57          H80   0.965       .  S
O57         Ni73   1.849       .  S
O57        Ni437   1.925   1_545  S
O57       Ni1207   1.982   1_445  S
C58          O75   1.237       .  A
C58         O819   1.265   1_455  A
C58        C1171   1.453   1_545  S
O59         Ni78   1.949       .  S
O59          C65   1.276       .  A
O60         Ni78   1.922       .  S
O60          C62   1.276       .  A
Ni61         O64   1.884       .  S
Ni61         O66   1.916       .  S
Ni61        O433   1.924       .  S
C62         O824   1.283       .  A
C62         C160   1.496       .  S
O63         Ni79   1.884       .  S
O63          C69   1.237       .  A
O64         C821   1.261   1_455  A
C65         O432   1.267   1_545  A
C65         C120   1.502       .  S
O66          C68   1.277       .  A
O67         Ni78   1.892       .  S
O67         C810   1.265       .  A
C68         O826   1.285   1_455  A
C68         C153   1.503       .  S
C69         O816   1.261       .  A
C69        C1160   1.452       .  S
H70          O71   0.963       .  S
O71         Ni79   1.845       .  S
O71       Ni1201   1.983       .  S
O71        Ni454   1.923       .  S
O72         Ni73   1.967       .  S
O72         C814   1.283   1_455  A
Ni73         O77   1.905       .  S
Ni73         O75   1.882       .  S
Ni73       O1199   1.983   1_445  S
O74         Ni79   1.976       .  S
O74         C820   1.285       .  A
C76         O453   1.269       .  A
C76         C113   1.496       .  S
O77         C452   1.268   1_545  A
Ni78        O447   1.922   1_545  S
Ni79       O1185   1.981       .  S
O81        Ni277   1.957       .  S
O81          C91   1.288       .  A
O82         Ni89   1.958   1_554  S
O82          C92   1.288       .  A
O83         Ni89   1.918   1_554  S
O83          C93   1.283       .  A
O84         Ni89   1.922       .  S
O84         C282   1.280       .  A
O85         Ni90   1.917       .  S
O85         C470   1.283       .  A
O86         Ni90   1.916       .  S
O86         C657   1.279       .  A
O87        Ni278   1.960   1_554  S
O87         C468   1.289       .  A
O88         Ni90   1.958       .  S
O88         C467   1.288       .  A
Ni89        O269   1.959       .  S
Ni89       Ni654   2.376   1_556  S
Ni90        O275   1.957       .  S
Ni90       Ni653   2.376   1_545  S
C91         O464   1.289       .  A
C91         C106   1.520       .  S
C92         O463   1.289       .  A
C92         C105   1.520       .  S
C93         O650   1.278       .  A
C93         C133   1.491       .  S
C94         O272   1.281       .  A
C94         O461   1.282       .  A
C94         C519   1.495       .  S
O95        Ni103   1.958       .  S
O95         C105   1.289       .  A
O96        Ni103   1.961       .  S
O96         C106   1.289       .  A
O97        Ni103   1.927       .  S
O97         C107   1.283       .  A
O98        Ni103   1.925       .  S
O98         C108   1.282       .  A
O99        Ni104   1.925       .  S
O99         C484   1.282       .  A
O100       Ni104   1.924       .  S
O100        C483   1.281       .  A
O101       Ni104   1.960       .  S
O101        C482   1.289       .  A
O102       Ni104   1.963       .  S
O102        C481   1.290       .  A
Ni103      Ni480   2.378       .  S
Ni104      Ni479   2.378   1_545  S
C105        O478   1.289       .  A
C106        O477   1.288       .  A
C107        O476   1.282       .  A
C107        C110   1.495       .  S
C108        O475   1.283       .  A
C108        C499   1.491       .  S
C109        C110   1.409       .  A
C109        C114   1.405       .  A
C109        H116   1.083       .  S
C110        C487   1.414       .  A
C111        C112   1.403       .  A
C111        C486   1.415       .  A
C111       Br118   1.921       .  S
C112        C489   1.408   1_545  A
C112        H117   1.084       .  S
C113        C114   1.416       .  A
C113        C488   1.408       .  A
C114       Br115   1.922       .  S
C119        C124   1.402       .  A
C119        C496   1.412       .  A
C119        H126   1.083       .  S
C120        C121   1.419       .  A
C120        C495   1.413   1_545  A
C121        C122   1.405       .  A
C121       Br128   1.921       .  S
C122        C123   1.406       .  A
C122        H127   1.084       .  S
C123        C484   1.489       .  S
C123        C500   1.409   1_545  A
C124        C499   1.410       .  A
C124       Br125   1.921       .  S
C129        C134   1.402       .  A
C129        C506   1.402   1_545  A
C129        H136   1.084       .  S
C130        C505   1.403       .  A
C130        C319   1.409       .  A
C131        C132   1.396       .  A
C131        C318   1.412       .  A
C131       Br138   1.922       .  S
C132        C321   1.406       .  A
C132        H137   1.083       .  S
C133        C320   1.406       .  A
C133        C510   1.421       .  A
C134        C509   1.419       .  A
C134       Br135   1.921       .  S
C139        C144   1.401       .  A
C139        C516   1.403       .  A
C139        H146   1.084       .  S
C140        C515   1.403   1_545  A
C140        C329   1.412       .  A
C141        C142   1.398       .  A
C141        C328   1.412       .  A
C141       Br148   1.923       .  S
C142        C331   1.407       .  A
C142        H147   1.083       .  S
C143        C470   1.492       .  S
C143        C330   1.407       .  A
C143        C520   1.420   1_545  A
C144        C519   1.419       .  A
C144       Br145   1.921       .  S
C149        C150   1.408       .  A
C149        C154   1.411       .  A
C149        H156   1.083       .  S
C150        C903   1.413       .  A
C151        C152   1.400       .  A
C151        C902   1.413       .  A
C151       Br158   1.923       .  S
C152        C153   1.407       .  A
C152        H157   1.082       .  S
C153        C906   1.419   1_455  A
C154        C905   1.419       .  A
C154       Br155   1.919       .  S
C159        C160   1.407       .  A
C159        C164   1.406       .  A
C159        H166   1.084       .  S
C160        C913   1.415       .  A
C161        C162   1.406       .  A
C161        C912   1.415       .  A
C161       Br168   1.920       .  S
C162        C915   1.407       .  A
C162        H167   1.083       .  S
C163        C164   1.414       .  A
C163        C914   1.407       .  A
C164       Br165   1.920       .  S
C169        C174   1.398       .  A
C169        C922   1.404       .  A
C169        H176   1.084       .  S
C170        C171   1.411   1_655  A
C170        C921   1.404       .  A
C171        C172   1.399       .  A
C171       Br366   1.921       .  S
C172        C173   1.406   1_455  A
C172        H365   1.084       .  S
C173        C926   1.414       .  A
C174        C925   1.414       .  A
C174       Br175   1.921       .  S
H177        C360   1.083       .  S
Br178       C359   1.920       .  S
C179        C180   1.404       .  A
C179        C184   1.397       .  A
C179        H186   1.084       .  S
C180        C933   1.416   1_556  A
C181        C182   1.400       .  A
C181        C932   1.416   1_554  A
C181       Br188   1.923       .  S
C182        C935   1.403   1_554  A
C182        H187   1.084       .  S
C183        C765   1.478       .  S
C183        C184   1.410       .  A
C183        C934   1.403   1_556  A
C184       Br185   1.920       .  S
O189       Ni197   1.960       .  S
O189        C951   1.289       .  A
O190        C952   1.289       .  A
O191        C201   1.280       .  A
O192       Ni197   1.922   1_554  S
O192        C202   1.283   1_455  A
O193        C954   1.279       .  A
O194       Ni198   1.909       .  S
O194        C953   1.279       .  A
O195       Ni198   1.959       .  S
O195        C200   1.289       .  A
O196        C199   1.289       .  A
Ni197      Ni762   2.380   1_456  S
Ni198      Ni761   2.381       .  S
C199        O941   1.289       .  A
C199        C214   1.520       .  S
C200        O942   1.289       .  A
C200        C213   1.520       .  S
C201        O946   1.279   1_455  A
C201       C1123   1.470       .  S
C202        O945   1.279       .  A
C202        C361   1.483       .  S
O203       Ni211   1.959       .  S
O203        C965   1.289       .  A
O204       Ni211   1.958       .  S
O204        C966   1.288       .  A
O205       Ni211   1.936       .  S
O205        C967   1.285       .  A
O206       Ni211   1.931       .  S
O206        C968   1.283       .  A
O207       Ni212   1.932       .  S
O207        C216   1.284       .  A
O208       Ni212   1.929       .  S
O208        C215   1.282       .  A
O209       Ni212   1.960       .  S
O209        C214   1.289       .  A
O210       Ni212   1.959       .  S
O210        C213   1.289       .  A
Ni211      Ni964   2.374   1_455  S
Ni212      Ni963   2.374       .  S
C213        O955   1.289       .  A
C214        O956   1.288       .  A
C215        O957   1.285       .  A
C215        C351   1.504       .  S
C216        O958   1.283       .  A
C216        C338   1.509       .  S
O217       Ni223   1.917       .  S
O218       Ni241   1.908       .  S
O218        C603   1.269       .  A
O219        H242   0.962   1_565  S
O219       Ni599   1.934       .  S
O219      Ni1369   1.985   1_455  S
C220        O237   1.242   1_655  A
C220        O981   1.257       .  A
C220       C1385   1.453   1_545  S
O221       Ni240   1.920       .  S
O222       Ni240   1.907       .  S
O222        C224   1.274       .  A
Ni223       O226   1.884       .  S
Ni223       O228   1.909       .  S
Ni223       O595   1.930       .  S
C224        O986   1.277       .  A
C224        C368   1.473       .  S
O225       Ni241   1.884       .  S
O225        C231   1.238       .  A
O226        C983   1.256   1_455  A
C227        O594   1.270   1_545  A
C227        C328   1.482       .  S
O228        C230   1.275       .  A
O229       Ni240   1.888       .  S
O229        C972   1.257       .  A
C230        O988   1.280   1_455  A
C230        C358   1.479   1_456  S
C231        O978   1.256       .  A
C231       C1374   1.450       .  S
H232        O233   0.960       .  S
O233      Ni1363   1.974       .  S
O233       Ni616   1.929       .  S
O234       Ni235   1.939       .  S
O234        C976   1.277   1_455  A
Ni235       O239   1.919       .  S
Ni235       O237   1.885       .  S
Ni235      O1361   1.980   1_455  S
O236       Ni241   1.946       .  S
O236        C982   1.280       .  A
C238        O615   1.272       .  A
C238        C318   1.480       .  S
O239        C614   1.272   1_545  A
Ni240       O609   1.930       .  S
Ni241      O1347   1.985       .  S
O243       Ni249   1.936       .  S
O243        C264   1.274       .  A
O244       Ni267   1.902       .  S
O244        C629   1.267       .  A
O245        H268   0.965       .  S
O245       Ni625   1.924   1_545  S
O245      Ni1395   1.985   1_445  S
O245       Ni261   1.845       .  S
C246        O263   1.238   1_545  A
C246       O1007   1.262   1_455  A
C246       C1359   1.450   1_445  S
O247       Ni266   1.941       .  S
O247        C253   1.274       .  A
O248       Ni266   1.919       .  S
O248        C250   1.276       .  A
Ni249       O252   1.882   1_455  S
Ni249       O254   1.914       .  S
Ni249       O621   1.925       .  S
C250       O1012   1.285       .  A
C250        C348   1.502       .  S
O251       Ni267   1.886       .  S
O251        C257   1.237       .  A
O252       C1009   1.261       .  A
C253        O620   1.268   1_545  A
C253        C308   1.498       .  S
O254        C256   1.276       .  A
O255       Ni266   1.885       .  S
O255        C998   1.262       .  A
C256       O1014   1.285   1_455  A
C256        C341   1.509       .  S
C257       O1004   1.261       .  A
C257       C1348   1.457       .  S
H258        O259   0.964       .  S
O259       Ni267   1.846       .  S
O259      Ni1389   1.981       .  S
O259       Ni642   1.923       .  S
O260       Ni261   1.974       .  S
O260       C1002   1.285   1_455  A
Ni261       O265   1.906       .  S
Ni261       O263   1.881   1_545  S
Ni261      O1387   1.982   1_445  S
O262       Ni267   1.977       .  S
O262       C1008   1.285       .  A
C264        O641   1.269       .  A
C264        C301   1.494       .  S
O265        C640   1.269   1_545  A
Ni266       O635   1.923   1_545  S
Ni267      O1373   1.980       .  S
O269        C279   1.288       .  A
O270       Ni277   1.957       .  S
O270        C280   1.288       .  A
O271       Ni277   1.921       .  S
O271        C281   1.284       .  A
O272       Ni277   1.925       .  S
O273       Ni278   1.921       .  S
O273        C658   1.283       .  A
O274       Ni278   1.922   1_554  S
O274        C469   1.281       .  A
O275        C656   1.288       .  A
O276       Ni278   1.957       .  S
O276        C655   1.288       .  A
Ni277      Ni466   2.376       .  S
Ni278      Ni465   2.376   1_545  S
C279        O652   1.289       .  A
C279        C294   1.520       .  S
C280        O651   1.289       .  A
C280        C293   1.520       .  S
C281        O462   1.278       .  A
C281        C321   1.492       .  S
C282        O649   1.282       .  A
C282        C707   1.492       .  S
O283       Ni291   1.959       .  S
O283        C293   1.289       .  A
O284       Ni291   1.963       .  S
O284        C294   1.290       .  A
O285       Ni291   1.927       .  S
O285        C295   1.283       .  A
O286       Ni291   1.922       .  S
O286        C296   1.281       .  A
O287       Ni292   1.921       .  S
O287        C672   1.282       .  A
O288       Ni292   1.925       .  S
O288        C671   1.282       .  A
O289       Ni292   1.955       .  S
O289        C670   1.288       .  A
O290       Ni292   1.959       .  S
O290        C669   1.289       .  A
Ni291      Ni668   2.379       .  S
Ni292      Ni667   2.380   1_545  S
C293        O666   1.289       .  A
C294        O665   1.288       .  A
C295        O664   1.282       .  A
C295        C298   1.493       .  S
C296        O663   1.282       .  A
C296        C687   1.482       .  S
C297        C298   1.407       .  A
C297        C302   1.403       .  A
C297        H304   1.083       .  S
C298        C675   1.413       .  A
C299        C674   1.413       .  A
C299        C300   1.403       .  A
C299       Br306   1.921       .  S
C300        C677   1.409   1_545  A
C300        H305   1.083       .  S
C301        C676   1.408       .  A
C301        C302   1.416       .  A
C302       Br303   1.923       .  S
C307        C684   1.414       .  A
C307        C312   1.403       .  A
C307        H314   1.083       .  S
C308        C683   1.413   1_545  A
C308        C309   1.419       .  A
C309        C310   1.401       .  A
C309       Br316   1.921       .  S
C310        C311   1.403       .  A
C310        H315   1.084       .  S
C311        C672   1.481       .  S
C311        C688   1.408   1_545  A
C312        C687   1.408       .  A
C312       Br313   1.921       .  S
C317        C694   1.402   1_545  A
C317        C322   1.402       .  A
C317        H324   1.084       .  S
C318        C693   1.401       .  A
C319        C320   1.394       .  A
C319       Br326   1.921       .  S
C320        H325   1.083       .  S
C321        C698   1.421       .  A
C322        C697   1.420       .  A
C322       Br323   1.922       .  S
C327        C704   1.404       .  A
C327        C332   1.402       .  A
C327        H334   1.084       .  S
C328        C703   1.402   1_545  A
C329        C330   1.396       .  A
C329       Br336   1.924       .  S
C330        H335   1.083       .  S
C331        C658   1.491       .  S
C331        C708   1.420   1_545  A
C332        C707   1.418       .  A
C332       Br333   1.921       .  S
C337        C338   1.411       .  A
C337        C342   1.409       .  A
C337        H344   1.083       .  S
C338       C1091   1.419       .  A
C339       C1090   1.419       .  A
C339        C340   1.404       .  A
C339       Br346   1.922       .  S
C340        C341   1.410       .  A
C340        H345   1.083       .  S
C341       C1094   1.418   1_455  A
C342       C1093   1.418       .  A
C342       Br343   1.921       .  S
C347        C348   1.408       .  A
C347        C352   1.406       .  A
C347        H354   1.083       .  S
C348       C1101   1.416       .  A
C349       C1100   1.416   1_455  A
C349        C350   1.408       .  A
C349       Br356   1.921       .  S
C350       C1103   1.409   1_455  A
C350        H355   1.083       .  S
C351       C1102   1.409       .  A
C351        C352   1.417       .  A
C352       Br353   1.921       .  S
C357       C1110   1.403   1_556  A
C357        C362   1.397       .  A
C357        H364   1.084       .  S
C358       C1109   1.403   1_554  A
C358        C359   1.409   1_655  A
C359        C360   1.400       .  A
C360        C361   1.407   1_455  A
C361       C1114   1.415   1_554  A
C362       C1113   1.415   1_556  A
C362       Br363   1.921       .  S
C367        C368   1.404       .  A
C367        C372   1.397       .  A
C367        H374   1.084       .  S
C368       C1121   1.414       .  A
C369       C1120   1.414       .  A
C369        C370   1.396       .  A
C369       Br376   1.924       .  S
C370       C1123   1.401       .  A
C370        H375   1.084       .  S
C371        C953   1.470       .  S
C371       C1122   1.401       .  A
C371        C372   1.409       .  A
C372       Br373   1.921       .  S
O377       Ni385   1.965       .  S
O377       C1139   1.291       .  A
O378       Ni573   1.955   1_554  S
O378       C1140   1.288       .  A
O379       Ni573   1.912       .  S
O379        C389   1.280       .  A
O380       Ni385   1.918       .  S
O380        C390   1.282   1_455  A
O381       Ni574   1.912       .  S
O381       C1142   1.279       .  A
O382       Ni386   1.912   1_556  S
O382       C1141   1.280       .  A
O383       Ni386   1.964       .  S
O383        C388   1.290       .  A
O384       Ni574   1.952       .  S
O384        C387   1.287       .  A
Ni385       O566   1.963       .  S
Ni385       O567   1.914       .  S
Ni385     Ni1326   2.381   1_455  S
Ni386       O569   1.912       .  S
Ni386       O572   1.961   1_554  S
Ni386     Ni1325   2.381   1_554  S
C387       O1129   1.291       .  A
C387        C402   1.519       .  S
C388       O1130   1.288       .  A
C388        C401   1.520       .  S
C389       O1134   1.280   1_455  A
C389       C1311   1.470       .  S
C390       O1133   1.279       .  A
C390        C549   1.479       .  S
O391       Ni399   1.959       .  S
O391       C1153   1.289       .  A
O392       Ni399   1.960       .  S
O392       C1154   1.288       .  A
O393       Ni399   1.935       .  S
O393       C1155   1.285       .  A
O394       Ni399   1.926       .  S
O394       C1156   1.283       .  A
O395       Ni400   1.931       .  S
O395        C404   1.283       .  A
O396       Ni400   1.931       .  S
O396        C403   1.283       .  A
O397       Ni400   1.957       .  S
O397        C402   1.289       .  A
O398       Ni400   1.960       .  S
O398        C401   1.289       .  A
Ni399     Ni1152   2.376   1_455  S
Ni400     Ni1151   2.376       .  S
C401       O1143   1.289       .  A
C402       O1144   1.288       .  A
C403       O1145   1.285       .  A
C403        C539   1.508       .  S
C404       O1146   1.283       .  A
C404        C526   1.497       .  S
O405       Ni411   1.913       .  S
O405        C614   1.269       .  A
O406       Ni429   1.913       .  S
O407        H430   0.962       .  S
O407       Ni805   1.988   1_455  S
O407       Ni611   1.868       .  S
C408        O425   1.243       .  A
C408       O1169   1.256   1_455  A
C408        C821   1.452   1_455  S
O409       Ni428   1.922       .  S
O409        C603   1.271   1_554  A
O410       Ni428   1.908       .  S
O410        C412   1.274       .  A
Ni411       O414   1.881       .  S
Ni411       O416   1.904       .  S
C412       O1174   1.275       .  A
C412        C556   1.472   1_554  S
O413       Ni429   1.881       .  S
O413        C419   1.237       .  A
O414       C1171   1.255       .  A
C415        O597   1.271       .  A
C415        C516   1.483       .  S
O416        C418   1.273       .  A
O417       Ni428   1.888       .  S
O417       C1160   1.256       .  A
C418       O1176   1.282   1_455  A
C418        C546   1.477   1_455  S
C419       O1166   1.255       .  A
C419        C810   1.453   1_565  S
H420        O421   0.961   1_565  S
O421       Ni617   1.849   1_544  S
O421       Ni799   1.976       .  S
O422       Ni423   1.935       .  S
O422       C1164   1.275   1_455  A
Ni423       O427   1.915       .  S
Ni423       O425   1.886       .  S
Ni423       O595   1.865   1_554  S
Ni423       O797   1.976   1_455  S
O424       Ni429   1.951       .  S
O424       C1170   1.282       .  A
C426        O593   1.270       .  A
C426        C506   1.479   1_556  S
Ni429       O783   1.988       .  S
Ni429       O609   1.846   1_565  S
O431       Ni437   1.934       .  S
O431        C452   1.274       .  A
O432       Ni455   1.900       .  S
O433        H456   0.965       .  S
O433       Ni831   1.981   1_455  S
O433       Ni449   1.843       .  S
C434        O451   1.237       .  A
C434       O1195   1.264       .  A
C434        C795   1.452       .  S
O435       Ni454   1.951       .  S
O435        C441   1.277       .  A
O436       Ni454   1.919       .  S
O436        C438   1.277       .  A
Ni437       O440   1.882       .  S
Ni437       O442   1.912       .  S
C438       O1200   1.285       .  A
C438        C536   1.507       .  S
O439       Ni455   1.885       .  S
O439        C445   1.236       .  A
O440       C1197   1.258   1_455  A
C441        C496   1.501       .  S
O442        C444   1.277       .  A
O443       Ni454   1.889       .  S
O443       C1186   1.264       .  A
C444       O1202   1.286   1_455  A
C444        C529   1.501       .  S
C445       O1192   1.258       .  A
C445        C784   1.452   1_565  S
H446        O447   0.962       .  S
O447       Ni455   1.838       .  S
O447       Ni825   1.983   1_565  S
O448       Ni449   1.976       .  S
O448       C1190   1.285   1_455  A
Ni449       O453   1.903       .  S
Ni449       O451   1.884       .  S
Ni449       O823   1.983   1_455  S
O450       Ni455   1.980       .  S
O450       C1196   1.286       .  A
C452        C489   1.493       .  S
Ni455       O809   1.982   1_565  S
O457       Ni653   1.962       .  S
O457        C467   1.289   1_565  A
O458       Ni465   1.958   1_554  S
O458        C468   1.289   1_565  A
O459       Ni465   1.912       .  S
O459        C469   1.281   1_566  A
O460       Ni465   1.912       .  S
O460        C658   1.278   1_565  A
O461       Ni466   1.916       .  S
O462       Ni466   1.912       .  S
O463       Ni654   1.962       .  S
O464       Ni466   1.961       .  S
Ni465       O645   1.958       .  S
Ni466       O651   1.961       .  S
C467        C482   1.521       .  S
C468        C481   1.520       .  S
C469        C509   1.493       .  S
C470        O648   1.279   1_545  A
O471       Ni479   1.956       .  S
O471        C481   1.288   1_565  A
O472       Ni479   1.959       .  S
O472        C482   1.289   1_565  A
O473       Ni479   1.925       .  S
O473        C483   1.284   1_565  A
O474       Ni479   1.927       .  S
O474        C484   1.282   1_565  A
O475       Ni480   1.925       .  S
O476       Ni480   1.926       .  S
O477       Ni480   1.958       .  S
O478       Ni480   1.960       .  S
C483        C486   1.494       .  S
C485        C486   1.407   1_565  A
C485        C490   1.402       .  A
C485        H492   1.083       .  S
C487        C488   1.401       .  A
C487       Br494   1.921       .  S
C488        H493   1.083       .  S
C489        C490   1.415       .  A
C490       Br491   1.923       .  S
C495        C500   1.402       .  A
C495        H502   1.083       .  S
C496        C497   1.417       .  A
C497        C498   1.405       .  A
C497       Br504   1.918       .  S
C498        C499   1.406       .  A
C498        H503   1.084       .  S
C500       Br501   1.920       .  S
C505        C510   1.403       .  A
C505        H512   1.084       .  S
C506        C695   1.409       .  A
C507        C694   1.411       .  A
C507        C508   1.395       .  A
C507       Br514   1.922       .  S
C508        C697   1.406   1_565  A
C508        H513   1.083       .  S
C509        C696   1.408   1_545  A
C510       Br511   1.923       .  S
C515        C520   1.402       .  A
C515        H522   1.084       .  S
C516        C705   1.412       .  A
C517        C704   1.411       .  A
C517        C518   1.395       .  A
C517       Br524   1.924       .  S
C518        C707   1.407       .  A
C518        H523   1.083       .  S
C519        C706   1.409       .  A
C520       Br521   1.922       .  S
C525        C526   1.409       .  A
C525        C530   1.410       .  A
C525        H532   1.083       .  S
C526       C1279   1.414       .  A
C527       C1278   1.414       .  A
C527        C528   1.400       .  A
C527       Br534   1.923       .  S
C528        C529   1.408       .  A
C528        H533   1.083       .  S
C529       C1282   1.417   1_455  A
C530       C1281   1.417       .  A
C530       Br531   1.919       .  S
C535        C536   1.409       .  A
C535        C540   1.406       .  A
C535        H542   1.083       .  S
C536       C1289   1.418       .  A
C537       C1288   1.418       .  A
C537        C538   1.409       .  A
C537       Br544   1.921       .  S
C538       C1291   1.410       .  A
C538        H543   1.083       .  S
C539       C1290   1.410       .  A
C539        C540   1.418       .  A
C540       Br541   1.922       .  S
C545       C1298   1.403       .  A
C545        C550   1.396       .  A
C545        H552   1.084       .  S
C546       C1297   1.403       .  A
C546        C547   1.411   1_655  A
C547        C548   1.398       .  A
C547       Br742   1.921       .  S
C548        C549   1.405   1_455  A
C548        H741   1.084       .  S
C549       C1302   1.414       .  A
C550       C1301   1.414       .  A
C550       Br551   1.921       .  S
H553        C736   1.084       .  S
Br554       C735   1.921       .  S
C555        C556   1.404       .  A
C555        C560   1.397       .  A
C555        H562   1.084       .  S
C556       C1309   1.415   1_556  A
C557       C1308   1.415   1_554  A
C557        C558   1.395       .  A
C557       Br564   1.924       .  S
C558       C1311   1.400   1_554  A
C558        H563   1.084       .  S
C559       C1141   1.470       .  S
C559       C1310   1.400   1_556  A
C559        C560   1.408       .  A
C560       Br561   1.920       .  S
O565       Ni573   1.957       .  S
O565       C1327   1.289       .  A
O566       C1328   1.290       .  A
O567        C577   1.280       .  A
O568       Ni573   1.915   1_554  S
O568        C578   1.282   1_455  A
O569       C1330   1.279       .  A
O570       Ni574   1.911       .  S
O570       C1329   1.280       .  A
O571       Ni574   1.956       .  S
O571        C576   1.288       .  A
O572        C575   1.289       .  A
Ni573     Ni1138   2.381   1_456  S
Ni574     Ni1137   2.381       .  S
C575       O1317   1.289       .  A
C575        C590   1.520       .  S
C576       O1318   1.290       .  A
C576        C589   1.520       .  S
C577       O1322   1.280   1_455  A
C577       C1499   1.471       .  S
C578       O1321   1.279       .  A
C578        C737   1.479       .  S
O579       Ni587   1.958       .  S
O579       C1341   1.288       .  A
O580       Ni587   1.957       .  S
O580       C1342   1.288       .  A
O581       Ni587   1.940       .  S
O581       C1343   1.286       .  A
O582       Ni587   1.936       .  S
O582       C1344   1.284       .  A
O583       Ni588   1.929       .  S
O583        C592   1.284       .  A
O584       Ni588   1.927       .  S
O584        C591   1.282       .  A
O585       Ni588   1.961       .  S
O585        C590   1.289       .  A
O586       Ni588   1.960       .  S
O586        C589   1.289       .  A
Ni587     Ni1340   2.375   1_455  S
Ni588     Ni1339   2.375       .  S
C589       O1331   1.288       .  A
C590       O1332   1.288       .  A
C591       O1333   1.286       .  A
C591        C727   1.505       .  S
C592       O1334   1.284       .  A
C592        C714   1.508       .  S
O593       Ni599   1.916       .  S
O594       Ni617   1.909       .  S
O595        H618   0.962       .  S
O595       Ni993   1.985   1_455  S
C596        O613   1.245   1_655  A
C596       O1357   1.258       .  A
C596       C1009   1.457       .  S
O597       Ni616   1.923       .  S
O598       Ni616   1.908       .  S
O598        C600   1.274       .  A
Ni599       O602   1.881       .  S
Ni599       O604   1.904       .  S
C600       O1362   1.276       .  A
C600        C744   1.476       .  S
O601       Ni617   1.885       .  S
O601        C607   1.238       .  A
O602       C1359   1.254   1_455  A
C603        C704   1.482       .  S
O604        C606   1.274       .  A
O605       Ni616   1.890       .  S
O605       C1348   1.258       .  A
C606       O1364   1.282   1_455  A
C606        C734   1.479   1_456  S
C607       O1354   1.254       .  A
C607        C998   1.450   1_565  S
H608        O609   0.961   1_565  S
O609       Ni987   1.980       .  S
O610       Ni611   1.939       .  S
O610       C1352   1.276       .  A
Ni611       O615   1.922       .  S
Ni611       O613   1.886       .  S
Ni611       O985   1.974   1_455  S
O612       Ni617   1.952       .  S
O612       C1358   1.282       .  A
C614        C694   1.480       .  S
Ni617       O971   1.985       .  S
O619       Ni625   1.937       .  S
O619        C640   1.275       .  A
O620       Ni643   1.901       .  S
O621        H644   0.965       .  S
O621      Ni1019   1.980   1_455  S
O621       Ni637   1.845       .  S
C622        O639   1.238       .  A
C622       O1383   1.263   1_455  A
C622        C983   1.450   1_455  S
O623       Ni642   1.946       .  S
O623        C629   1.276       .  A
O624       Ni642   1.924       .  S
O624        C626   1.278       .  A
Ni625       O628   1.880   1_455  S
Ni625       O630   1.915       .  S
C626       O1388   1.285       .  A
C626        C724   1.504       .  S
O627       Ni643   1.881   1_545  S
O627        C633   1.234   1_545  A
O628       C1385   1.261       .  A
C629        C684   1.501       .  S
O630        C632   1.277       .  A
O631       Ni642   1.888       .  S
O631       C1374   1.263       .  A
C632       O1390   1.286   1_455  A
C632        C717   1.508       .  S
C633       O1380   1.261       .  A
C633        C972   1.453   1_565  S
H634        O635   0.964       .  S
O635       Ni643   1.839       .  S
O635      Ni1013   1.982   1_565  S
O636       Ni637   1.972       .  S
O636       C1378   1.285   1_455  A
Ni637       O641   1.904       .  S
Ni637       O639   1.882       .  S
Ni637      O1011   1.981   1_455  S
O638       Ni643   1.978       .  S
O638       C1384   1.286       .  A
C640        C677   1.493       .  S
Ni643       O997   1.985   1_565  S
O645        C655   1.288   1_565  A
O646       Ni653   1.960       .  S
O646        C656   1.289   1_565  A
O647       Ni653   1.914       .  S
O647        C657   1.282   1_565  A
O648       Ni653   1.917       .  S
O649       Ni654   1.912   1_556  S
O650       Ni654   1.912       .  S
O652       Ni654   1.959   1_556  S
C655        C670   1.518       .  S
C656        C669   1.519       .  S
C657        C697   1.491       .  S
O659       Ni667   1.958       .  S
O659        C669   1.289   1_565  A
O660       Ni667   1.959       .  S
O660        C670   1.289   1_565  A
O661       Ni667   1.920       .  S
O661        C671   1.282   1_565  A
O662       Ni667   1.918       .  S
O662        C672   1.280   1_565  A
O663       Ni668   1.919       .  S
O664       Ni668   1.926       .  S
O665       Ni668   1.955       .  S
O666       Ni668   1.958       .  S
C671        C674   1.490       .  S
C673        C674   1.406   1_565  A
C673        C678   1.401       .  A
C673        H680   1.083       .  S
C675        C676   1.402       .  A
C675       Br682   1.920       .  S
C676        H681   1.083       .  S
C677        C678   1.415       .  A
C678       Br679   1.922       .  S
C683        C688   1.401       .  A
C683        H690   1.083       .  S
C684        C685   1.418       .  A
C685        C686   1.401       .  A
C685       Br692   1.920       .  S
C686        C687   1.403       .  A
C686        H691   1.084       .  S
C688       Br689   1.921       .  S
C693        C698   1.402       .  A
C693        H700   1.084       .  S
C695        C696   1.396       .  A
C695       Br702   1.922   1_554  S
C696        H701   1.083   1_554  S
C698       Br699   1.923       .  S
C703        C708   1.400       .  A
C703        H710   1.084       .  S
C705        C706   1.398       .  A
C705       Br712   1.924       .  S
C706        H711   1.083       .  S
C708       Br709   1.923       .  S
C713        C714   1.411       .  A
C713        C718   1.408       .  A
C713        H720   1.083       .  S
C714       C1467   1.417       .  A
C715       C1466   1.417       .  A
C715        C716   1.406       .  A
C715       Br722   1.921       .  S
C716        C717   1.410       .  A
C716        H721   1.083       .  S
C717       C1470   1.418   1_455  A
C718       C1469   1.418       .  A
C718       Br719   1.921       .  S
C723        C724   1.408       .  A
C723        C728   1.407       .  A
C723        H730   1.083       .  S
C724       C1477   1.417       .  A
C725       C1476   1.417   1_455  A
C725        C726   1.408       .  A
C725       Br732   1.921       .  S
C726       C1479   1.409   1_455  A
C726        H731   1.083       .  S
C727       C1478   1.409       .  A
C727        C728   1.418       .  A
C728       Br729   1.921       .  S
C733       C1486   1.404   1_556  A
C733        C738   1.397       .  A
C733        H740   1.084       .  S
C734       C1485   1.404   1_554  A
C734        C735   1.411   1_655  A
C735        C736   1.398       .  A
C736        C737   1.405   1_455  A
C737       C1490   1.414   1_554  A
C738       C1489   1.414   1_556  A
C738       Br739   1.922       .  S
C743        C744   1.405       .  A
C743        C748   1.397       .  A
C743        H750   1.084       .  S
C744       C1497   1.415       .  A
C745       C1496   1.415       .  A
C745        C746   1.397       .  A
C745       Br752   1.923       .  S
C746       C1499   1.401       .  A
C746        H751   1.084       .  S
C747       C1329   1.471       .  S
C747       C1498   1.401       .  A
C747        C748   1.408       .  A
C748       Br749   1.921       .  S
O753       Ni761   1.963       .  S
O754       Ni949   1.956   1_554  S
O755       Ni949   1.921       .  S
O755        C765   1.281       .  A
O756       Ni761   1.919       .  S
O756        C766   1.282       .  A
O757       Ni950   1.913       .  S
O758       Ni762   1.914   1_556  S
O759       Ni762   1.958       .  S
O759        C764   1.289   1_655  A
O760       Ni950   1.959       .  S
O760        C763   1.289   1_655  A
Ni761       O942   1.960       .  S
Ni761       O943   1.915       .  S
Ni762       O945   1.915       .  S
Ni762       O948   1.958   1_554  S
C763        C778   1.522       .  S
C764        C777   1.517       .  S
C766        C925   1.482       .  S
O767       Ni775   1.957       .  S
O768       Ni775   1.959       .  S
O769       Ni775   1.930       .  S
O770       Ni775   1.924       .  S
O771       Ni776   1.933       .  S
O771        C780   1.283   1_655  A
O772       Ni776   1.932       .  S
O772        C779   1.284   1_655  A
O773       Ni776   1.962       .  S
O773        C778   1.290   1_655  A
O774       Ni776   1.956       .  S
O774        C777   1.288   1_655  A
C779        C915   1.497       .  S
C780        C902   1.496       .  S
O781       Ni787   1.911       .  S
O781        C990   1.268       .  A
O782       Ni805   1.911       .  S
O782       C1167   1.271       .  A
O783        H806   0.962   1_565  S
O783      Ni1163   1.931       .  S
O783       Ni987   1.861   1_565  S
C784        O801   1.243       .  A
O785       Ni804   1.923       .  S
O785        C979   1.271   1_554  A
O786       Ni804   1.908       .  S
O786        C788   1.274       .  A
Ni787       O790   1.882       .  S
Ni787       O792   1.906       .  S
Ni787      O1159   1.933       .  S
C788        C932   1.480   1_654  S
O789       Ni805   1.884       .  S
O789        C795   1.238   1_655  A
C791       O1158   1.270   1_545  A
C791        O973   1.270       .  A
C791        C892   1.483       .  S
O792        C794   1.274       .  A
O793       Ni804   1.886       .  S
C794        C922   1.480       .  S
H796        O797   0.961       .  S
O797       Ni993   1.851   1_554  S
O797      Ni1180   1.930       .  S
O798       Ni799   1.944       .  S
Ni799       O803   1.913       .  S
Ni799       O801   1.883       .  S
Ni799       O971   1.863   1_544  S
O800       Ni805   1.951       .  S
C802        O969   1.270   1_554  A
C802       O1179   1.270       .  A
C802        C882   1.479       .  S
O803       C1178   1.270   1_544  A
Ni804      O1173   1.928       .  S
Ni805       O985   1.846       .  S
O807       Ni813   1.943       .  S
O807        C828   1.276       .  A
O808       Ni831   1.899       .  S
O808       C1193   1.267       .  A
O809        H832   0.965       .  S
O809      Ni1189   1.925   1_545  S
O809       Ni825   1.849       .  S
C810        O827   1.237       .  A
O811       Ni830   1.949       .  S
O811        C817   1.276       .  A
O812       Ni830   1.922       .  S
O812        C814   1.276       .  A
Ni813       O816   1.884       .  S
Ni813       O818   1.916       .  S
Ni813      O1185   1.924       .  S
C814        C912   1.496   1_655  S
O815       Ni831   1.884       .  S
O815        C821   1.237       .  A
C817       O1184   1.267   1_545  A
C817        C872   1.502       .  S
O818        C820   1.277       .  A
O819       Ni830   1.892       .  S
C820        C905   1.503       .  S
H822        O823   0.963       .  S
O823       Ni831   1.845       .  S
O823      Ni1206   1.923       .  S
O824       Ni825   1.967       .  S
Ni825       O829   1.905       .  S
Ni825       O827   1.882       .  S
O826       Ni831   1.976       .  S
C828       O1205   1.269       .  A
C828        C865   1.496       .  S
O829       C1204   1.268   1_545  A
Ni830      O1199   1.922   1_545  S
O833      Ni1029   1.957       .  S
O833        C843   1.288       .  A
O834       Ni841   1.958   1_554  S
O834        C844   1.288       .  A
O835       Ni841   1.918   1_554  S
O835        C845   1.283       .  A
O836       Ni841   1.922       .  S
O836       C1034   1.280       .  A
O837       Ni842   1.917       .  S
O837       C1222   1.283       .  A
O838       Ni842   1.916       .  S
O838       C1409   1.279       .  A
O839      Ni1030   1.960   1_554  S
O839       C1220   1.289       .  A
O840       Ni842   1.958       .  S
O840       C1219   1.288       .  A
Ni841      O1021   1.959       .  S
Ni841     Ni1406   2.376   1_556  S
Ni842      O1027   1.957       .  S
Ni842     Ni1405   2.376   1_545  S
C843       O1216   1.289       .  A
C843        C858   1.520       .  S
C844       O1215   1.289       .  A
C844        C857   1.520       .  S
C845       O1402   1.278       .  A
C845        C885   1.491       .  S
C846       O1024   1.281       .  A
C846       O1213   1.282       .  A
C846       C1271   1.495       .  S
O847       Ni855   1.958       .  S
O847        C857   1.289       .  A
O848       Ni855   1.961       .  S
O848        C858   1.289       .  A
O849       Ni855   1.927       .  S
O849        C859   1.283       .  A
O850       Ni855   1.925       .  S
O850        C860   1.282       .  A
O851       Ni856   1.925       .  S
O851       C1236   1.282       .  A
O852       Ni856   1.924       .  S
O852       C1235   1.281       .  A
O853       Ni856   1.960       .  S
O853       C1234   1.289       .  A
O854       Ni856   1.963       .  S
O854       C1233   1.290       .  A
Ni855     Ni1232   2.378       .  S
Ni856     Ni1231   2.378   1_545  S
C857       O1230   1.289       .  A
C858       O1229   1.288       .  A
C859       O1228   1.282       .  A
C859        C862   1.495       .  S
C860       O1227   1.283       .  A
C860       C1251   1.491       .  S
C861        C862   1.409       .  A
C861        C866   1.405       .  A
C861        H868   1.083       .  S
C862       C1239   1.414       .  A
C863       C1238   1.415       .  A
C863        C864   1.403       .  A
C863       Br870   1.921       .  S
C864       C1241   1.408   1_545  A
C864        H869   1.084       .  S
C865       C1240   1.408       .  A
C865        C866   1.416       .  A
C866       Br867   1.922       .  S
C871       C1248   1.412       .  A
C871        C876   1.402       .  A
C871        H878   1.083       .  S
C872       C1247   1.413   1_545  A
C872        C873   1.419       .  A
C873        C874   1.405       .  A
C873       Br880   1.921       .  S
C874        C875   1.406       .  A
C874        H879   1.084       .  S
C875       C1236   1.489       .  S
C875       C1252   1.409   1_545  A
C876       C1251   1.410       .  A
C876       Br877   1.921       .  S
C881       C1258   1.402   1_545  A
C881        C886   1.402       .  A
C881        H888   1.084       .  S
C882       C1257   1.403       .  A
C882       C1071   1.409       .  A
C883       C1070   1.412       .  A
C883        C884   1.396       .  A
C883       Br890   1.922       .  S
C884       C1073   1.406       .  A
C884        H889   1.083       .  S
C885       C1072   1.406       .  A
C885       C1262   1.421       .  A
C886       C1261   1.419       .  A
C886       Br887   1.921       .  S
C891       C1268   1.403       .  A
C891        C896   1.401       .  A
C891        H898   1.084       .  S
C892       C1267   1.403   1_545  A
C892       C1081   1.412       .  A
C893       C1080   1.412       .  A
C893        C894   1.398       .  A
C893       Br900   1.923       .  S
C894       C1083   1.407       .  A
C894        H899   1.083       .  S
C895       C1222   1.492       .  S
C895       C1082   1.407       .  A
C895       C1272   1.420   1_545  A
C896       C1271   1.419       .  A
C896       Br897   1.921       .  S
C901        C902   1.408   1_655  A
C901        C906   1.411       .  A
C901        H908   1.083       .  S
C903        C904   1.400       .  A
C903       Br910   1.923       .  S
C904        C905   1.407       .  A
C904        H909   1.082       .  S
C906       Br907   1.919       .  S
C911        C912   1.407   1_655  A
C911        C916   1.406       .  A
C911        H918   1.084       .  S
C913        C914   1.406       .  A
C913       Br920   1.920       .  S
C914        H919   1.083       .  S
C915        C916   1.414   1_455  A
C916       Br917   1.920       .  S
C921        C926   1.398       .  A
C921        H928   1.084       .  S
C922        C923   1.411       .  A
C923        C924   1.399       .  A
C923      Br1118   1.921       .  S
C924        C925   1.406       .  A
C924       H1117   1.084       .  S
C926       Br927   1.921       .  S
H929       C1112   1.083       .  S
Br930      C1111   1.920       .  S
C931        C932   1.404   1_655  A
C931        C936   1.397       .  A
C931        H938   1.084       .  S
C933        C934   1.400       .  A
C933       Br940   1.923       .  S
C934        H939   1.084       .  S
C935        C936   1.410   1_455  A
C936       Br937   1.920       .  S
O941       Ni949   1.960       .  S
O943        C953   1.280       .  A
O944       Ni949   1.922   1_554  S
O944        C954   1.283       .  A
O946       Ni950   1.909       .  S
O947       Ni950   1.959       .  S
O947        C952   1.289   1_655  A
O948        C951   1.289   1_655  A
C951        C966   1.520       .  S
C952        C965   1.520       .  S
C954       C1113   1.483       .  S
O955       Ni963   1.959       .  S
O956       Ni963   1.958       .  S
O957       Ni963   1.936       .  S
O958       Ni963   1.931       .  S
O959       Ni964   1.932       .  S
O959        C968   1.284   1_655  A
O960       Ni964   1.929       .  S
O960        C967   1.282   1_655  A
O961       Ni964   1.960       .  S
O961        C966   1.289   1_655  A
O962       Ni964   1.959       .  S
O962        C965   1.289   1_655  A
C967       C1103   1.504   1_455  S
C968       C1090   1.509       .  S
O969       Ni975   1.917       .  S
O970       Ni993   1.908       .  S
O970       C1355   1.269       .  A
O971        H994   0.962   1_565  S
O971      Ni1351   1.934       .  S
C972        O989   1.242       .  A
O973       Ni992   1.920       .  S
O974       Ni992   1.907       .  S
O974        C976   1.274       .  A
Ni975       O978   1.884       .  S
Ni975       O980   1.909       .  S
Ni975      O1347   1.930       .  S
C976       C1120   1.473   1_655  S
O977       Ni993   1.884       .  S
O977        C983   1.238       .  A
C979       O1346   1.270   1_545  A
C979       C1080   1.482       .  S
O980        C982   1.275       .  A
O981       Ni992   1.888       .  S
C982       C1110   1.479   1_556  S
H984        O985   0.960       .  S
O985      Ni1368   1.929       .  S
O986       Ni987   1.939       .  S
Ni987       O991   1.919       .  S
Ni987       O989   1.885       .  S
O988       Ni993   1.946       .  S
C990       O1367   1.272       .  A
C990       C1070   1.480       .  S
O991       C1366   1.272   1_545  A
Ni992      O1361   1.930       .  S
O995      Ni1001   1.936       .  S
O995       C1016   1.274       .  A
O996      Ni1019   1.902       .  S
O996       C1381   1.267       .  A
O997       H1020   0.965       .  S
O997      Ni1377   1.924   1_545  S
O997      Ni1013   1.845       .  S
C998       O1015   1.238   1_545  A
O999      Ni1018   1.941       .  S
O999       C1005   1.274       .  A
O1000     Ni1018   1.919       .  S
O1000      C1002   1.276       .  A
Ni1001     O1004   1.882       .  S
Ni1001     O1006   1.914       .  S
Ni1001     O1373   1.925       .  S
C1002      C1100   1.502       .  S
O1003     Ni1019   1.886       .  S
O1003      C1009   1.237       .  A
C1005      O1372   1.268   1_545  A
C1005      C1060   1.498       .  S
O1006      C1008   1.276       .  A
O1007     Ni1018   1.885       .  S
C1008      C1093   1.509       .  S
H1010      O1011   0.964       .  S
O1011     Ni1019   1.846       .  S
O1011     Ni1394   1.923       .  S
O1012     Ni1013   1.974       .  S
Ni1013     O1017   1.906       .  S
Ni1013     O1015   1.881   1_545  S
O1014     Ni1019   1.977       .  S
C1016      O1393   1.269       .  A
C1016      C1053   1.494       .  S
O1017      C1392   1.269   1_545  A
Ni1018     O1387   1.923   1_545  S
O1021      C1031   1.288       .  A
O1022     Ni1029   1.957       .  S
O1022      C1032   1.288       .  A
O1023     Ni1029   1.921       .  S
O1023      C1033   1.284       .  A
O1024     Ni1029   1.925       .  S
O1025     Ni1030   1.921       .  S
O1025      C1410   1.283       .  A
O1026     Ni1030   1.922   1_554  S
O1026      C1221   1.281       .  A
O1027      C1408   1.288       .  A
O1028     Ni1030   1.957       .  S
O1028      C1407   1.288       .  A
Ni1029    Ni1218   2.376       .  S
Ni1030    Ni1217   2.376   1_545  S
C1031      O1404   1.289       .  A
C1031      C1046   1.520       .  S
C1032      O1403   1.289       .  A
C1032      C1045   1.520       .  S
C1033      O1214   1.278       .  A
C1033      C1073   1.492       .  S
C1034      O1401   1.282       .  A
C1034      C1459   1.492       .  S
O1035     Ni1043   1.959       .  S
O1035      C1045   1.289       .  A
O1036     Ni1043   1.963       .  S
O1036      C1046   1.290       .  A
O1037     Ni1043   1.927       .  S
O1037      C1047   1.283       .  A
O1038     Ni1043   1.922       .  S
O1038      C1048   1.281       .  A
O1039     Ni1044   1.921       .  S
O1039      C1424   1.282       .  A
O1040     Ni1044   1.925       .  S
O1040      C1423   1.282       .  A
O1041     Ni1044   1.955       .  S
O1041      C1422   1.288       .  A
O1042     Ni1044   1.959       .  S
O1042      C1421   1.289       .  A
Ni1043    Ni1420   2.379       .  S
Ni1044    Ni1419   2.380   1_545  S
C1045      O1418   1.289       .  A
C1046      O1417   1.288       .  A
C1047      O1416   1.282       .  A
C1047      C1050   1.493       .  S
C1048      O1415   1.282       .  A
C1048      C1439   1.482       .  S
C1049      C1050   1.407       .  A
C1049      C1054   1.403       .  A
C1049      H1056   1.083       .  S
C1050      C1427   1.413       .  A
C1051      C1426   1.413       .  A
C1051      C1052   1.403       .  A
C1051     Br1058   1.921       .  S
C1052      C1429   1.409   1_545  A
C1052      H1057   1.083       .  S
C1053      C1428   1.408       .  A
C1053      C1054   1.416       .  A
C1054     Br1055   1.923       .  S
C1059      C1436   1.414       .  A
C1059      C1064   1.403       .  A
C1059      H1066   1.083       .  S
C1060      C1435   1.413   1_545  A
C1060      C1061   1.419       .  A
C1061      C1062   1.401       .  A
C1061     Br1068   1.921       .  S
C1062      C1063   1.403       .  A
C1062      H1067   1.084       .  S
C1063      C1424   1.481       .  S
C1063      C1440   1.408   1_545  A
C1064      C1439   1.408       .  A
C1064     Br1065   1.921       .  S
C1069      C1446   1.402   1_545  A
C1069      C1074   1.402       .  A
C1069      H1076   1.084       .  S
C1070      C1445   1.401       .  A
C1071      C1072   1.394       .  A
C1071     Br1078   1.921       .  S
C1072      H1077   1.083       .  S
C1073      C1450   1.421       .  A
C1074      C1449   1.420       .  A
C1074     Br1075   1.922       .  S
C1079      C1456   1.404       .  A
C1079      C1084   1.402       .  A
C1079      H1086   1.084       .  S
C1080      C1455   1.402   1_545  A
C1081      C1082   1.396       .  A
C1081     Br1088   1.924       .  S
C1082      H1087   1.083       .  S
C1083      C1410   1.491       .  S
C1083      C1460   1.420   1_545  A
C1084      C1459   1.418       .  A
C1084     Br1085   1.921       .  S
C1089      C1090   1.411   1_655  A
C1089      C1094   1.409       .  A
C1089      H1096   1.083       .  S
C1091      C1092   1.404       .  A
C1091     Br1098   1.922       .  S
C1092      C1093   1.410       .  A
C1092      H1097   1.083       .  S
C1094     Br1095   1.921       .  S
C1099      C1100   1.408       .  A
C1099      C1104   1.406       .  A
C1099      H1106   1.083       .  S
C1101      C1102   1.408       .  A
C1101     Br1108   1.921       .  S
C1102      H1107   1.083       .  S
C1103      C1104   1.417       .  A
C1104     Br1105   1.921       .  S
C1109      C1114   1.397       .  A
C1109      H1116   1.084       .  S
C1110      C1111   1.409       .  A
C1111      C1112   1.400       .  A
C1112      C1113   1.407       .  A
C1114     Br1115   1.921       .  S
C1119      C1120   1.404   1_655  A
C1119      C1124   1.397       .  A
C1119      H1126   1.084       .  S
C1121      C1122   1.396       .  A
C1121     Br1128   1.924       .  S
C1122      H1127   1.084       .  S
C1123      C1124   1.409   1_455  A
C1124     Br1125   1.921       .  S
O1129     Ni1137   1.965       .  S
O1130     Ni1325   1.955   1_554  S
O1131     Ni1325   1.912       .  S
O1131      C1141   1.280       .  A
O1132     Ni1137   1.918       .  S
O1132      C1142   1.282       .  A
O1133     Ni1326   1.912       .  S
O1134     Ni1138   1.912   1_556  S
O1135     Ni1138   1.964       .  S
O1135      C1140   1.290   1_655  A
O1136     Ni1326   1.952       .  S
O1136      C1139   1.287   1_655  A
Ni1137     O1318   1.963       .  S
Ni1137     O1319   1.914       .  S
Ni1138     O1321   1.912       .  S
Ni1138     O1324   1.961   1_554  S
C1139      C1154   1.519       .  S
C1140      C1153   1.520       .  S
C1142      C1301   1.479       .  S
O1143     Ni1151   1.959       .  S
O1144     Ni1151   1.960       .  S
O1145     Ni1151   1.935       .  S
O1146     Ni1151   1.926       .  S
O1147     Ni1152   1.931       .  S
O1147      C1156   1.283   1_655  A
O1148     Ni1152   1.931       .  S
O1148      C1155   1.283   1_655  A
O1149     Ni1152   1.957       .  S
O1149      C1154   1.289   1_655  A
O1150     Ni1152   1.960       .  S
O1150      C1153   1.289   1_655  A
C1155      C1291   1.508       .  S
C1156      C1278   1.497       .  S
O1157     Ni1163   1.913       .  S
O1157      C1366   1.269       .  A
O1158     Ni1181   1.913       .  S
O1159      H1182   0.962       .  S
O1159     Ni1363   1.868       .  S
C1160      O1177   1.243       .  A
O1161     Ni1180   1.922       .  S
O1161      C1355   1.271   1_554  A
O1162     Ni1180   1.908       .  S
O1162      C1164   1.274       .  A
Ni1163     O1166   1.881       .  S
Ni1163     O1168   1.904       .  S
C1164      C1308   1.472   1_654  S
O1165     Ni1181   1.881       .  S
O1165      C1171   1.237   1_655  A
C1167      O1349   1.271       .  A
C1167      C1268   1.483       .  S
O1168      C1170   1.273       .  A
O1169     Ni1180   1.888       .  S
C1170      C1298   1.477       .  S
H1172      O1173   0.961   1_565  S
O1173     Ni1369   1.849   1_544  S
O1174     Ni1175   1.935       .  S
Ni1175     O1179   1.915       .  S
Ni1175     O1177   1.886       .  S
Ni1175     O1347   1.865   1_554  S
O1176     Ni1181   1.951       .  S
C1178      O1345   1.270       .  A
C1178      C1258   1.479   1_556  S
Ni1181     O1361   1.846   1_565  S
O1183     Ni1189   1.934       .  S
O1183      C1204   1.274       .  A
O1184     Ni1207   1.900       .  S
O1185      H1208   0.965       .  S
O1185     Ni1201   1.843       .  S
C1186      O1203   1.237       .  A
O1187     Ni1206   1.951       .  S
O1187      C1193   1.277       .  A
O1188     Ni1206   1.919       .  S
O1188      C1190   1.277       .  A
Ni1189     O1192   1.882       .  S
Ni1189     O1194   1.912       .  S
C1190      C1288   1.507   1_655  S
O1191     Ni1207   1.885       .  S
O1191      C1197   1.236       .  A
C1193      C1248   1.501       .  S
O1194      C1196   1.277       .  A
O1195     Ni1206   1.889   1_455  S
C1196      C1281   1.501       .  S
H1198      O1199   0.962       .  S
O1199     Ni1207   1.838       .  S
O1200     Ni1201   1.976       .  S
Ni1201     O1205   1.903       .  S
Ni1201     O1203   1.884       .  S
O1202     Ni1207   1.980       .  S
C1204      C1241   1.493       .  S
O1209     Ni1405   1.962       .  S
O1209      C1219   1.289   1_565  A
O1210     Ni1217   1.958   1_554  S
O1210      C1220   1.289   1_565  A
O1211     Ni1217   1.912       .  S
O1211      C1221   1.281   1_566  A
O1212     Ni1217   1.912       .  S
O1212      C1410   1.278   1_565  A
O1213     Ni1218   1.916       .  S
O1214     Ni1218   1.912       .  S
O1215     Ni1406   1.962       .  S
O1216     Ni1218   1.961       .  S
Ni1217     O1397   1.958       .  S
Ni1218     O1403   1.961       .  S
C1219      C1234   1.521       .  S
C1220      C1233   1.520       .  S
C1221      C1261   1.493       .  S
C1222      O1400   1.279   1_545  A
O1223     Ni1231   1.956       .  S
O1223      C1233   1.288   1_565  A
O1224     Ni1231   1.959       .  S
O1224      C1234   1.289   1_565  A
O1225     Ni1231   1.925       .  S
O1225      C1235   1.284   1_565  A
O1226     Ni1231   1.927       .  S
O1226      C1236   1.282   1_565  A
O1227     Ni1232   1.925       .  S
O1228     Ni1232   1.926       .  S
O1229     Ni1232   1.958       .  S
O1230     Ni1232   1.960       .  S
C1235      C1238   1.494       .  S
C1237      C1238   1.407   1_565  A
C1237      C1242   1.402       .  A
C1237      H1244   1.083       .  S
C1239      C1240   1.401       .  A
C1239     Br1246   1.921       .  S
C1240      H1245   1.083       .  S
C1241      C1242   1.415       .  A
C1242     Br1243   1.923       .  S
C1247      C1252   1.402       .  A
C1247      H1254   1.083       .  S
C1248      C1249   1.417       .  A
C1249      C1250   1.405       .  A
C1249     Br1256   1.918       .  S
C1250      C1251   1.406       .  A
C1250      H1255   1.084       .  S
C1252     Br1253   1.920       .  S
C1257      C1262   1.403       .  A
C1257      H1264   1.084       .  S
C1258      C1447   1.409       .  A
C1259      C1446   1.411       .  A
C1259      C1260   1.395       .  A
C1259     Br1266   1.922       .  S
C1260      C1449   1.406   1_565  A
C1260      H1265   1.083       .  S
C1261      C1448   1.408   1_545  A
C1262     Br1263   1.923       .  S
C1267      C1272   1.402       .  A
C1267      H1274   1.084       .  S
C1268      C1457   1.412       .  A
C1269      C1456   1.411       .  A
C1269      C1270   1.395       .  A
C1269     Br1276   1.924       .  S
C1270      C1459   1.407       .  A
C1270      H1275   1.083       .  S
C1271      C1458   1.409       .  A
C1272     Br1273   1.922       .  S
C1277      C1278   1.409   1_655  A
C1277      C1282   1.410       .  A
C1277      H1284   1.083       .  S
C1279      C1280   1.400       .  A
C1279     Br1286   1.923       .  S
C1280      C1281   1.408       .  A
C1280      H1285   1.083       .  S
C1282     Br1283   1.919       .  S
C1287      C1288   1.409   1_655  A
C1287      C1292   1.406       .  A
C1287      H1294   1.083       .  S
C1289      C1290   1.409       .  A
C1289     Br1296   1.921       .  S
C1290      H1295   1.083       .  S
C1291      C1292   1.418   1_455  A
C1292     Br1293   1.922       .  S
C1297      C1302   1.396       .  A
C1297      H1304   1.084       .  S
C1298      C1299   1.411       .  A
C1299      C1300   1.398       .  A
C1299     Br1494   1.921       .  S
C1300      C1301   1.405       .  A
C1300      H1493   1.084       .  S
C1302     Br1303   1.921       .  S
H1305      C1488   1.084       .  S
Br1306     C1487   1.921       .  S
C1307      C1308   1.404   1_655  A
C1307      C1312   1.397       .  A
C1307      H1314   1.084       .  S
C1309      C1310   1.395       .  A
C1309     Br1316   1.924       .  S
C1310      H1315   1.084       .  S
C1311      C1312   1.408   1_455  A
C1312     Br1313   1.920       .  S
O1317     Ni1325   1.957       .  S
O1319      C1329   1.280       .  A
O1320     Ni1325   1.915   1_554  S
O1320      C1330   1.282       .  A
O1322     Ni1326   1.911       .  S
O1323     Ni1326   1.956       .  S
O1323      C1328   1.288   1_655  A
O1324      C1327   1.289   1_655  A
C1327      C1342   1.520       .  S
C1328      C1341   1.520       .  S
C1330      C1489   1.479       .  S
O1331     Ni1339   1.958       .  S
O1332     Ni1339   1.957       .  S
O1333     Ni1339   1.940       .  S
O1334     Ni1339   1.936       .  S
O1335     Ni1340   1.929       .  S
O1335      C1344   1.284   1_655  A
O1336     Ni1340   1.927       .  S
O1336      C1343   1.282   1_655  A
O1337     Ni1340   1.961       .  S
O1337      C1342   1.289   1_655  A
O1338     Ni1340   1.960       .  S
O1338      C1341   1.289   1_655  A
C1343      C1479   1.505   1_455  S
C1344      C1466   1.508       .  S
O1345     Ni1351   1.916       .  S
O1346     Ni1369   1.909       .  S
O1347      H1370   0.962       .  S
C1348      O1365   1.245       .  A
O1349     Ni1368   1.923       .  S
O1350     Ni1368   1.908       .  S
O1350      C1352   1.274   1_655  A
Ni1351     O1354   1.881       .  S
Ni1351     O1356   1.904       .  S
C1352      C1496   1.476       .  S
O1353     Ni1369   1.885       .  S
O1353      C1359   1.238       .  A
C1355      C1456   1.482       .  S
O1356      C1358   1.274       .  A
O1357     Ni1368   1.890       .  S
C1358      C1486   1.479   1_556  S
H1360      O1361   0.961   1_565  S
O1362     Ni1363   1.939       .  S
Ni1363     O1367   1.922       .  S
Ni1363     O1365   1.886       .  S
O1364     Ni1369   1.952       .  S
C1366      C1446   1.480       .  S
O1371     Ni1377   1.937       .  S
O1371      C1392   1.275       .  A
O1372     Ni1395   1.901       .  S
O1373      H1396   0.965       .  S
O1373     Ni1389   1.845       .  S
C1374      O1391   1.238       .  A
O1375     Ni1394   1.946       .  S
O1375      C1381   1.276       .  A
O1376     Ni1394   1.924       .  S
O1376      C1378   1.278       .  A
Ni1377     O1380   1.880       .  S
Ni1377     O1382   1.915       .  S
C1378      C1476   1.504       .  S
O1379     Ni1395   1.881   1_545  S
O1379      C1385   1.234   1_545  A
C1381      C1436   1.501       .  S
O1382      C1384   1.277       .  A
O1383     Ni1394   1.888       .  S
C1384      C1469   1.508       .  S
H1386      O1387   0.964       .  S
O1387     Ni1395   1.839       .  S
O1388     Ni1389   1.972       .  S
Ni1389     O1393   1.904       .  S
Ni1389     O1391   1.882       .  S
O1390     Ni1395   1.978       .  S
C1392      C1429   1.493       .  S
O1397      C1407   1.288   1_565  A
O1398     Ni1405   1.960       .  S
O1398      C1408   1.289   1_565  A
O1399     Ni1405   1.914       .  S
O1399      C1409   1.282   1_565  A
O1400     Ni1405   1.917       .  S
O1401     Ni1406   1.912   1_556  S
O1402     Ni1406   1.912       .  S
O1404     Ni1406   1.959   1_556  S
C1407      C1422   1.518       .  S
C1408      C1421   1.519       .  S
C1409      C1449   1.491       .  S
O1411     Ni1419   1.958       .  S
O1411      C1421   1.289   1_565  A
O1412     Ni1419   1.959       .  S
O1412      C1422   1.289   1_565  A
O1413     Ni1419   1.920       .  S
O1413      C1423   1.282   1_565  A
O1414     Ni1419   1.918       .  S
O1414      C1424   1.280   1_565  A
O1415     Ni1420   1.919       .  S
O1416     Ni1420   1.926       .  S
O1417     Ni1420   1.955       .  S
O1418     Ni1420   1.958       .  S
C1423      C1426   1.490       .  S
C1425      C1426   1.406   1_565  A
C1425      C1430   1.401       .  A
C1425      H1432   1.083       .  S
C1427      C1428   1.402       .  A
C1427     Br1434   1.920       .  S
C1428      H1433   1.083       .  S
C1429      C1430   1.415       .  A
C1430     Br1431   1.922       .  S
C1435      C1440   1.401       .  A
C1435      H1442   1.083       .  S
C1436      C1437   1.418       .  A
C1437      C1438   1.401       .  A
C1437     Br1444   1.920       .  S
C1438      C1439   1.403       .  A
C1438      H1443   1.084       .  S
C1440     Br1441   1.921       .  S
C1445      C1450   1.402       .  A
C1445      H1452   1.084       .  S
C1447      C1448   1.396       .  A
C1447     Br1454   1.922   1_554  S
C1448      H1453   1.083   1_554  S
C1450     Br1451   1.923       .  S
C1455      C1460   1.400       .  A
C1455      H1462   1.084       .  S
C1457      C1458   1.398       .  A
C1457     Br1464   1.924       .  S
C1458      H1463   1.083       .  S
C1460     Br1461   1.923       .  S
C1465      C1466   1.411   1_655  A
C1465      C1470   1.408       .  A
C1465      H1472   1.083       .  S
C1467      C1468   1.406       .  A
C1467     Br1474   1.921       .  S
C1468      C1469   1.410       .  A
C1468      H1473   1.083       .  S
C1470     Br1471   1.921       .  S
C1475      C1476   1.408       .  A
C1475      C1480   1.407       .  A
C1475      H1482   1.083       .  S
C1477      C1478   1.408       .  A
C1477     Br1484   1.921       .  S
C1478      H1483   1.083       .  S
C1479      C1480   1.418       .  A
C1480     Br1481   1.921       .  S
C1485      C1490   1.397       .  A
C1485      H1492   1.084       .  S
C1486      C1487   1.411       .  A
C1487      C1488   1.398       .  A
C1488      C1489   1.405       .  A
C1490     Br1491   1.922       .  S
C1495      C1496   1.405   1_655  A
C1495      C1500   1.397       .  A
C1495      H1502   1.084       .  S
C1497      C1498   1.397       .  A
C1497     Br1504   1.923       .  S
C1498      H1503   1.084       .  S
C1499      C1500   1.408   1_455  A
C1500     Br1501   1.921       .  S
