geometry optimzed in LAMMPS
_audit_creation_date              2020-11-30 
_audit_creation_method            'lammps2cif' 
_symmetry_space_group_name_H-M    'P1' 
_symmetry_Int_Tables_number       1 
_symmetry_cell_setting            triclinic 
loop_ 
_symmetry_equiv_pos_as_xyz 
  x,y,z 
_cell_length_a                    33.26606208 
_cell_length_b                    39.591284516921505 
_cell_length_c                    36.124269667037915 
_cell_angle_alpha                 89.77922654229633 
_cell_angle_beta                  89.83092282730587 
_cell_angle_gamma                 89.89160771026904 
loop_ 
_atom_site_label 
_atom_site_type_symbol 
_atom_site_fract_x 
_atom_site_fract_y 
_atom_site_fract_z 
_atom_site_charge 
N1          N  0.50047540  0.54956707  0.48435176    -0.36600
N2          N  0.55979946  0.49737859  0.98343313    -0.57100
N3          N  0.49630138  0.44673612  0.98377523    -0.36600
N4          N  0.43783843  0.49835258  0.48831978    -0.57100
C5          C  0.53367464  0.56844527  0.49030726     0.27000
C6          C  0.46838819  0.56849805  0.49429430     0.27000
C7          C  0.52891409  0.42679457  0.98873831     0.27000
C8          C  0.46345488  0.42775570  0.99115814     0.27000
C9          C  0.58544264  0.52537304  0.47514747     0.35600
C10         C  0.58217000  0.46969495  0.97610171     0.35600
C11         C  0.41454845  0.52605968  0.48390969     0.35600
C12         C  0.41114409  0.47244466  0.98483992     0.35600
C13         C  0.52255238  0.59972144  0.50414515    -0.21800
C14         C  0.48133617  0.59974280  0.50670038    -0.21800
C15         C  0.51658251  0.39468196  0.99925795    -0.21800
C16         C  0.47525877  0.39526371  0.00063345    -0.21800
C17         C  0.62110110  0.51380710  0.96456956    -0.22900
C18         C  0.62035061  0.47911988  0.96459245    -0.22900
C19         C  0.37560347  0.51674455  0.47514207    -0.22900
C20         C  0.37525445  0.48209128  0.47376548    -0.22900
C21         C  0.57349315  0.55910255  0.48115726    -0.18200
C22         C  0.42765154  0.55957624  0.48925032    -0.18200
C23         C  0.42309024  0.43828777  0.98688307    -0.18200
C24         C  0.56926511  0.43602265  0.98134676    -0.18200
H25         H  0.54207554  0.62056666  0.51115130     0.14700
H26         H  0.46291232  0.62064310  0.51597656     0.14700
H27         H  0.53536975  0.37288006  0.00469445     0.14700
H28         H  0.45605795  0.37406182  0.00739228     0.14700
H29         H  0.64655192  0.52944311  0.95714392     0.12900
H30         H  0.64510206  0.46271574  0.95707538     0.12900
H31         H  0.35010619  0.53318214  0.47031923     0.12900
H32         H  0.34943299  0.46652141  0.46760992     0.12900
H33         H  0.49940563  0.52709016  0.46968336     0.26200
H34         H  0.49619415  0.47046829  0.97153544     0.26200
N35         N  0.00048017  0.05016781  0.48508227    -0.36600
N36         N  0.06218705  0.99891153  0.48069463    -0.57100
N37         N  0.99971013  0.94825172  0.48224105    -0.36600
N38         N  0.93795158  0.99935056  0.48410150    -0.57100
C39         C  0.03313561  0.06874744  0.47595766     0.27000
C40         C  0.96772842  0.06907636  0.47712465     0.27000
C41         C  0.03194940  0.93013371  0.47098619     0.27000
C42         C  0.96663148  0.93020068  0.47358830     0.27000
C43         C  0.08494561  0.02576794  0.48981322     0.35600
C44         C  0.08448047  0.97118562  0.48793396     0.35600
C45         C  0.91541607  0.02670662  0.49232840     0.35600
C46         C  0.91516034  0.97202286  0.49187941     0.35600
C47         C  0.02101262  0.09971064  0.46175647    -0.21800
C48         C  0.97967970  0.09992389  0.46250119    -0.21800
C49         C  0.01921215  0.90047410  0.45446198    -0.21800
C50         C  0.97789785  0.90049951  0.45614268    -0.21800
C51         C  0.12201477  0.01514648  0.50287218    -0.22900
C52         C  0.12167760  0.98040725  0.50179101    -0.22900
C53         C  0.87792396  0.01679312  0.50513713    -0.22900
C54         C  0.87781333  0.98203626  0.50499772    -0.22900
C55         C  0.07339421  0.05956611  0.48342819    -0.18200
C56         C  0.92765452  0.06036523  0.48604428    -0.18200
C57         C  0.92701460  0.93843489  0.48451206    -0.18200
C58         C  0.07234243  0.93805119  0.47918332    -0.18200
H59         H  0.03999168  0.12028521  0.45254098     0.14700
H60         H  0.96060939  0.12072136  0.45402110     0.14700
H61         H  0.03781339  0.88045592  0.44334108     0.14700
H62         H  0.95840576  0.88053138  0.44652523     0.14700
H63         H  0.14682311  0.03078236  0.51170826     0.12900
H64         H  0.14619559  0.96389818  0.50965253     0.12900
H65         H  0.85320636  0.03289823  0.51347121     0.12900
H66         H  0.85294839  0.96604117  0.51314606     0.12900
H67         H  0.00063257  0.02791590  0.50049360     0.26200
H68         H  0.00042845  0.96915157  0.49962162     0.26200
O69         O  0.16767697  0.27162079  0.02353050    -0.78400
C70         C  0.18275182  0.28425519  0.40757268     0.82600
O71         O  0.22216690  0.16711311  0.48271210    -0.79600
O72         O  0.30476959  0.24262918  0.40687279    -0.81000
O73         O  0.29962988  0.31430737  0.01055263    -0.80800
O74         O  0.22100388  0.28496136  0.05779413    -0.79500
Zn75       Zn  0.18927473  0.24883225  0.48252763     1.55700
O76         O  0.29984012  0.31596059  0.45172489    -0.80900
Cd77       Cd  0.26798069  0.27144786  0.02393552     1.59700
Cd78       Cd  0.26865034  0.20149416  0.48159524     1.59600
O79         O  0.30603641  0.24106523  0.05411273    -0.80900
O80         O  0.24758222  0.24890818  0.48226836    -1.91400
Cd81       Cd  0.26750571  0.27332039  0.43750876     1.59900
O82         O  0.30510594  0.19157934  0.02501100    -0.80800
O83         O  0.22058322  0.28721142  0.40356321    -0.79500
C84         C  0.18435989  0.17152570  0.48556470     0.83100
C85         C  0.18321755  0.28384382  0.05268194     0.82700
O86         O  0.16705098  0.27050468  0.43608480    -0.78400
C87         C  0.31131264  0.32797278  0.48265043     0.83500
O88         O  0.16862368  0.20091742  0.48608405    -0.78500
C89         C  0.31691724  0.21033782  0.05142518     0.83700
C90         C  0.31564692  0.21181652  0.40918867     0.84000
O91         O  0.30392097  0.19277257  0.43553639    -0.80900
O92         O  0.82769681  0.27248548  0.43676132    -0.78400
C93         C  0.81000376  0.28312194  0.05392553     0.82600
O94         O  0.77804782  0.16638606  0.48173329    -0.79600
O95         O  0.68778283  0.23674780  0.05363370    -0.81000
O96         O  0.69596554  0.31299981  0.45095955    -0.80800
O97         O  0.77387658  0.28451049  0.40255714    -0.79500
Zn98       Zn  0.80636749  0.24907684  0.48264839     1.55700
O99         O  0.69202010  0.31097956  0.01100103    -0.80900
Cd100      Cd  0.72775306  0.27026688  0.43718213     1.59700
Cd101      Cd  0.72939096  0.19864137  0.48079837     1.59600
O102        O  0.69056695  0.23948484  0.40724026    -0.80900
O103        O  0.74812568  0.24669686  0.48211850    -1.91400
Cd104      Cd  0.72560944  0.26868558  0.02476676     1.59900
O105        O  0.69571866  0.18874256  0.43371082    -0.80800
O106        O  0.77210783  0.28305531  0.05923949    -0.79500
C107        C  0.81568559  0.17199052  0.48353115     0.83100
C108        C  0.81169081  0.28437210  0.40746641     0.82700
O109        O  0.82591657  0.27186562  0.02434448    -0.78400
C110        C  0.68431409  0.32551448  0.48159795     0.83500
O111        O  0.83000284  0.20184160  0.48482081    -0.78500
C112        C  0.68213813  0.20815134  0.40841991     0.83700
C113        C  0.67800121  0.20582176  0.05022195     0.84000
O114        O  0.69211394  0.18726184  0.02448579    -0.80900
O115        O  0.82524553  0.72438384  0.02858283    -0.78400
C116        C  0.81123921  0.71432183  0.40976873     0.82600
O117        O  0.77746475  0.83207641  0.48223224    -0.79600
O118        O  0.69212120  0.76137009  0.40689363    -0.81000
O119        O  0.69199035  0.68383733  0.01184459    -0.80800
O120        O  0.77077853  0.70988724  0.06103287    -0.79500
Zn121      Zn  0.80561093  0.74988007  0.48371690     1.55700
O122        O  0.69355369  0.68603001  0.45103967    -0.80900
Cd123      Cd  0.72502416  0.72590796  0.02683753     1.59700
Cd124      Cd  0.72939493  0.79947952  0.48281127     1.59600
O125        O  0.68982369  0.75785886  0.05780260    -0.80900
O126        O  0.74741808  0.75137790  0.48306686    -1.91400
Cd127      Cd  0.72664442  0.72867910  0.43795816     1.59900
O128        O  0.69600605  0.80820664  0.03053564    -0.80800
O129        O  0.77345621  0.71392095  0.40467385    -0.79500
C130        C  0.81513798  0.82669701  0.48342660     0.83100
C131        C  0.80872069  0.71093003  0.05675961     0.82700
O132        O  0.82710507  0.72641459  0.43882466    -0.78400
C133        C  0.68249708  0.67266255  0.48157719     0.83500
O134        O  0.82955515  0.79686931  0.48485364    -0.78500
C135        C  0.68312082  0.78952649  0.05677917     0.83700
C136        C  0.68334195  0.79263501  0.40952798     0.84000
O137        O  0.69537322  0.81017126  0.43671769    -0.80900
O138        O  0.17051356  0.72614425  0.43798926    -0.78400
C139        C  0.18599639  0.71178273  0.05655103     0.82600
O140        O  0.22184966  0.83153572  0.48302097    -0.79600
O141        O  0.30607331  0.75877450  0.05805467    -0.81000
O142        O  0.30534917  0.68507082  0.45198779    -0.80800
O143        O  0.22377596  0.71169543  0.40399388    -0.79500
Zn144      Zn  0.19240794  0.74921987  0.48304528     1.55700
O145        O  0.30507795  0.68580502  0.01360749    -0.80900
Cd146      Cd  0.27082830  0.72669560  0.43765025     1.59700
Cd147      Cd  0.26976762  0.79842434  0.48202478     1.59600
O148        O  0.30669050  0.75869292  0.40697491    -0.80900
O149        O  0.25059254  0.75044973  0.48257356    -1.91400
Cd150      Cd  0.27033839  0.72699620  0.02775128     1.59900
O151        O  0.30269024  0.80851865  0.43484950    -0.80800
O152        O  0.22385741  0.71105025  0.06150707    -0.79500
C153        C  0.18414158  0.82614788  0.48405848     0.83100
C154        C  0.18588793  0.71323444  0.40900410     0.82700
O155        O  0.17025708  0.72452863  0.02763710    -0.78400
C156        C  0.31755136  0.67300355  0.48273997     0.83500
O157        O  0.16968303  0.79638007  0.48407056    -0.78500
C158        C  0.31579880  0.78991043  0.40883380     0.83700
C159        C  0.31720421  0.78942578  0.05485214     0.84000
O160        O  0.30553089  0.80768219  0.02785417    -0.80900
N161        N  0.99739036  0.33152012  0.17191324    -0.36600
N162        N  0.05820343  0.33149812  0.22903210    -0.57100
N163        N  0.99766157  0.32995002  0.28618950    -0.36600
N164        N  0.93699261  0.33066719  0.22903945    -0.57100
C165        C  0.03021059  0.32046366  0.15343734     0.27000
C166        C  0.96486382  0.31995986  0.15352835     0.27000
C167        C  0.03034470  0.31899906  0.30493269     0.27000
C168        C  0.96498409  0.31885648  0.30493866     0.27000
C169        C  0.08163508  0.33691781  0.19911129     0.35600
C170        C  0.08190715  0.33545537  0.25891624     0.35600
C171        C  0.91356008  0.33645159  0.19928172     0.35600
C172        C  0.91371183  0.33577271  0.25911247     0.35600
C173        C  0.01845357  0.30183840  0.12287886    -0.21800
C174        C  0.97714630  0.30145218  0.12299244    -0.21800
C175        C  0.01831294  0.30131603  0.33626066    -0.21800
C176        C  0.97703563  0.30117245  0.33623120    -0.21800
C177        C  0.12020507  0.34554926  0.21001363    -0.22900
C178        C  0.12041021  0.34446719  0.24806257    -0.22900
C179        C  0.87546024  0.34641841  0.21044287    -0.22900
C180        C  0.87555082  0.34595885  0.24851595    -0.22900
C181        C  0.07041296  0.32776056  0.16294265    -0.18200
C182        C  0.92448412  0.32695098  0.16306693    -0.18200
C183        C  0.92460775  0.32512093  0.29495246    -0.18200
C184        C  0.07072835  0.32509927  0.29481968    -0.18200
H185        H  0.03761279  0.28960739  0.10269212     0.14700
H186        H  0.95834962  0.28890504  0.10290307     0.14700
H187        H  0.03726814  0.28936841  0.35681125     0.14700
H188        H  0.95811561  0.28908939  0.35676768     0.14700
H189        H  0.14604826  0.34997995  0.19238906     0.12900
H190        H  0.14637950  0.34791988  0.26561867     0.12900
H191        H  0.84973331  0.35153632  0.19301594     0.12900
H192        H  0.84988466  0.35051201  0.26630257     0.12900
H193        H  0.99721934  0.34856298  0.19383798     0.26200
H194        H  0.99759687  0.34641795  0.26362841     0.26200
N195        N  0.99729213  0.67376870  0.28812914    -0.36600
N196        N  0.05784880  0.66920240  0.23158852    -0.57100
N197        N  0.99760742  0.66515120  0.17425120    -0.36600
N198        N  0.93708021  0.66889038  0.23158838    -0.57100
C199        C  0.02971642  0.68628124  0.30580814     0.27000
C200        C  0.96443374  0.68559932  0.30587814     0.27000
C201        C  0.03058449  0.67500157  0.15514250     0.27000
C202        C  0.96521674  0.67625323  0.15519330     0.27000
C203        C  0.08087554  0.66557495  0.26203257     0.35600
C204        C  0.08091939  0.66032792  0.20245556     0.35600
C205        C  0.91354577  0.66530819  0.26175706     0.35600
C206        C  0.91378389  0.66228227  0.20208019     0.35600
C207        C  0.01735459  0.70621081  0.33522259    -0.21800
C208        C  0.97601991  0.70573301  0.33530882    -0.21800
C209        C  0.01901497  0.69224017  0.12338570    -0.21800
C210        C  0.97768636  0.69291515  0.12335450    -0.21800
C211        C  0.11847412  0.65327057  0.25241755    -0.22900
C212        C  0.11852179  0.64996892  0.21450855    -0.22900
C213        C  0.87533617  0.65508332  0.25154291    -0.22900
C214        C  0.87543908  0.65331516  0.21351760    -0.22900
C215        C  0.07001627  0.67850046  0.29697026    -0.18200
C216        C  0.92440991  0.67738135  0.29692788    -0.18200
C217        C  0.92476581  0.67113750  0.16569694    -0.18200
C218        C  0.07069166  0.66794790  0.16549606    -0.18200
H219        H  0.03612677  0.71962468  0.35465010     0.14700
H220        H  0.95672346  0.71874628  0.35479033     0.14700
H221        H  0.03827299  0.70347449  0.10254376     0.14700
H222        H  0.95900643  0.70473619  0.10250583     0.14700
H223        H  0.14383254  0.64899775  0.27055192     0.12900
H224        H  0.14398490  0.64274077  0.19756590     0.12900
H225        H  0.84945642  0.65164719  0.26938033     0.12900
H226        H  0.84967045  0.64825865  0.19618718     0.12900
H227        H  0.99756975  0.65535959  0.26758837     0.26200
H228        H  0.99724957  0.64946176  0.19749194     0.26200
N229        N  0.50229075  0.84321056  0.17499785    -0.36600
N230        N  0.56182113  0.84776067  0.23265232    -0.57100
N231        N  0.50054480  0.84516882  0.28953753    -0.36600
N232        N  0.44099540  0.84183393  0.23150655    -0.57100
C233        C  0.53587037  0.83308271  0.15708485     0.27000
C234        C  0.47075868  0.83033942  0.15628019     0.27000
C235        C  0.53356731  0.83595718  0.30887409     0.27000
C236        C  0.46829543  0.83323424  0.30830864     0.27000
C237        C  0.58577391  0.85234714  0.20291310     0.35600
C238        C  0.58482683  0.85313486  0.26268704     0.35600
C239        C  0.41754146  0.84469699  0.20127852     0.35600
C240        C  0.41656901  0.84559819  0.26103811     0.35600
C241        C  0.52549989  0.81389459  0.12648335    -0.21800
C242        C  0.48432637  0.81233244  0.12587476    -0.21800
C243        C  0.52210542  0.81882418  0.34077245    -0.21800
C244        C  0.48088482  0.81712088  0.34041771    -0.21800
C245        C  0.62391674  0.86197548  0.21399847    -0.22900
C246        C  0.62335415  0.86234447  0.25203851    -0.22900
C247        C  0.37815406  0.85130753  0.21154216    -0.22900
C248        C  0.37753817  0.85191669  0.24956348    -0.22900
C249        C  0.57555242  0.84157339  0.16706461    -0.18200
C250        C  0.43002163  0.83501289  0.16562403    -0.18200
C251        C  0.42777894  0.83685380  0.29737067    -0.18200
C252        C  0.57375591  0.84271538  0.29855558    -0.18200
H253        H  0.54546715  0.80204803  0.10668979     0.14700
H254        H  0.46645772  0.79908838  0.10559802     0.14700
H255        H  0.54140875  0.80819635  0.36190439     0.14700
H256        H  0.46237459  0.80490917  0.36118682     0.14700
H257        H  0.65004782  0.86596328  0.19661096     0.12900
H258        H  0.64897544  0.86655677  0.26982791     0.12900
H259        H  0.35224386  0.85327732  0.19360569     0.12900
H260        H  0.35103987  0.85443430  0.26679784     0.12900
H261        H  0.50084354  0.86031226  0.19681519     0.26200
H262        H  0.49988263  0.86072709  0.26624123     0.26200
N263        N  0.49761609  0.15520194  0.17538925    -0.36600
N264        N  0.43551170  0.15818613  0.23136289    -0.57100
N265        N  0.49962051  0.15821836  0.28598294    -0.36600
N266        N  0.56203902  0.15270694  0.22990229    -0.57100
C267        C  0.46431210  0.15063796  0.15470281     0.27000
C268        C  0.52959736  0.14725575  0.15402295     0.27000
C269        C  0.46704457  0.15507860  0.30811563     0.27000
C270        C  0.53244184  0.15336058  0.30726186     0.27000
C271        C  0.41353866  0.16720461  0.20151889     0.35600
C272        C  0.41453859  0.16845184  0.26132322     0.35600
C273        C  0.58330677  0.16057684  0.19913216     0.35600
C274        C  0.58438055  0.16302393  0.25892870     0.35600
C275        C  0.47511384  0.13888499  0.11998543    -0.21800
C276        C  0.51643422  0.13663446  0.11958968    -0.21800
C277        C  0.47927035  0.14729437  0.34382702    -0.21800
C278        C  0.52063362  0.14619363  0.34327580    -0.21800
C279        C  0.37771145  0.18202223  0.21254840    -0.22900
C280        C  0.37827736  0.18271635  0.25054112    -0.22900
C281        C  0.61986317  0.17480082  0.20869527    -0.22900
C282        C  0.62057078  0.17629380  0.24663525    -0.22900
C283        C  0.42560069  0.16218061  0.16447943    -0.18200
C284        C  0.56978096  0.15554817  0.16253045    -0.18200
C285        C  0.57209501  0.16130385  0.29634482    -0.18200
C286        C  0.42775953  0.16517707  0.29826625    -0.18200
H287        H  0.45540804  0.13419529  0.09678244     0.14700
H288        H  0.53485359  0.13000019  0.09595159     0.14700
H289        H  0.46047782  0.14471982  0.36817931     0.14700
H290        H  0.53988616  0.14259719  0.36707901     0.14700
H291        H  0.35394224  0.19173667  0.19507547     0.12900
H292        H  0.35500075  0.19311453  0.26814841     0.12900
H293        H  0.64319472  0.18392502  0.19029545     0.12900
H294        H  0.64451241  0.18680730  0.26319163     0.12900
H295        H  0.49889357  0.16916796  0.19957701     0.26200
H296        H  0.49974697  0.16946930  0.26006106     0.26200
C297        C  0.34460260  0.80337694  0.08353786    -0.06100
C298        C  0.35185497  0.78346662  0.11527031    -0.17200
C299        C  0.37924494  0.79343018  0.14234271     0.11100
C300        C  0.39927188  0.82448298  0.13847205    -0.06000
C301        C  0.39232867  0.84463334  0.10724406    -0.17200
C302        C  0.36532408  0.83457827  0.07979653     0.11200
S303        S  0.39050024  0.76540472  0.18055651    -0.32200
S304        S  0.36058679  0.86212210  0.04028025    -0.32200
H305        H  0.31938347  0.86789629  0.04660497     0.29200
H306        H  0.36177288  0.74055020  0.17231684     0.29200
H307        H  0.33672464  0.75948121  0.11861047     0.19700
H308        H  0.40853021  0.86820043  0.10405783     0.19800
C309        C  0.34251477  0.80432626  0.37977014    -0.06100
C310        C  0.34810674  0.78554744  0.34714909    -0.17200
C311        C  0.37502932  0.79597600  0.31964991     0.11100
C312        C  0.39598790  0.82658200  0.32397642    -0.06000
C313        C  0.38949742  0.84617161  0.35560303    -0.17200
C314        C  0.36365875  0.83523537  0.38378768     0.11200
S315        S  0.38439636  0.76894908  0.28033549    -0.32200
S316        S  0.36148905  0.86101494  0.42474238    -0.32200
H317        H  0.37040752  0.83398810  0.44880703     0.29200
H318        H  0.35608348  0.74383987  0.28924494     0.29200
H319        H  0.33215161  0.76200200  0.34355257     0.19700
H320        H  0.40618364  0.86943161  0.35906657     0.19800
C321        C  0.10354036  0.67513418  0.13851783    -0.06100
C322        C  0.13092230  0.70084014  0.14730565    -0.17200
C323        C  0.15867488  0.71267696  0.12133444     0.11100
C324        C  0.15928397  0.69860776  0.08554677    -0.06000
C325        C  0.13267268  0.67241583  0.07681342    -0.17200
C326        C  0.10532948  0.66007791  0.10307613     0.11200
S327        S  0.19062465  0.74724301  0.13490307    -0.32200
S328        S  0.07306699  0.62576181  0.08935504    -0.32200
H329        H  0.06605396  0.61323593  0.12525070     0.29200
H330        H  0.19054363  0.76376617  0.10037415     0.29200
H331        H  0.12938522  0.71294890  0.17413953     0.19700
H332        H  0.13328178  0.66147334  0.04935344     0.19800
C333        C  0.15877785  0.70111246  0.37984406    -0.06100
C334        C  0.16142667  0.71626501  0.34478681    -0.17200
C335        C  0.13257718  0.70998169  0.31759644     0.11100
C336        C  0.10176230  0.68620310  0.32463175    -0.06000
C337        C  0.09989651  0.67029410  0.35940748    -0.17200
C338        C  0.12762852  0.67782760  0.38719418     0.11200
S339        S  0.13515923  0.73493358  0.27573789    -0.32200
S340        S  0.12140823  0.65713340  0.43142389    -0.32200
H341        H  0.16235052  0.65713502  0.44096589     0.29200
H342        H  0.09337639  0.73720165  0.27044018     0.29200
H343        H  0.18462528  0.73485349  0.33938784     0.19700
H344        H  0.07616230  0.65227323  0.36511542     0.19800
C345        C  0.60589933  0.83229239  0.32448244    -0.06100
C346        C  0.61331607  0.85180423  0.35589720    -0.17200
C347        C  0.63968115  0.84055161  0.38341910     0.11100
C348        C  0.65849637  0.80843975  0.37992993    -0.06000
C349        C  0.65198519  0.78974231  0.34740611    -0.17200
C350        C  0.62593982  0.80125580  0.31980636     0.11200
S351        S  0.64613964  0.86792060  0.42264632    -0.32200
S352        S  0.61637755  0.77518667  0.27976928    -0.32200
H353        H  0.64501773  0.75001617  0.28766231     0.29200
H354        H  0.68788607  0.87088997  0.41699858     0.29200
H355        H  0.59770136  0.87564578  0.35932688     0.19700
H356        H  0.66651696  0.76548646  0.34390889     0.19800
C357        C  0.65952881  0.80516603  0.08682269    -0.06100
C358        C  0.63569971  0.83353404  0.07852330    -0.17200
C359        C  0.61044095  0.84783547  0.10515203     0.11100
C360        C  0.60810844  0.83300563  0.14066829    -0.06000
C361        C  0.63323255  0.80572756  0.14953564    -0.17200
C362        C  0.65948047  0.79213401  0.12337779     0.11200
S363        S  0.58034777  0.88375932  0.09163847    -0.32200
S364        S  0.69227225  0.75860278  0.13879824    -0.32200
H365        H  0.72592203  0.77015850  0.11875074     0.29200
H366        H  0.57542353  0.89688464  0.12747970     0.29200
H367        H  0.63593399  0.84417151  0.05083540     0.19700
H368        H  0.63162037  0.79438175  0.17686537     0.19800
C369        C  0.83749326  0.70182254  0.38037916    -0.06100
C370        C  0.83651437  0.71876158  0.34634742    -0.17200
C371        C  0.86451165  0.71147409  0.31874368     0.11100
C372        C  0.89267031  0.68519827  0.32441365    -0.06000
C373        C  0.89266642  0.66742977  0.35810260    -0.17200
C374        C  0.86561647  0.67569182  0.38631165     0.11200
S375        S  0.86425803  0.73824176  0.27830541    -0.32200
S376        S  0.86873606  0.65230931  0.42917283    -0.32200
H377        H  0.82805606  0.65581080  0.43913925     0.29200
H378        H  0.90592943  0.73725498  0.27187454     0.29200
H379        H  0.81533357  0.73926341  0.34211711     0.19700
H380        H  0.91450991  0.64750963  0.36268022     0.19800
C381        C  0.83467168  0.69749488  0.08585741    -0.06100
C382        C  0.83799429  0.71620244  0.11843036    -0.17200
C383        C  0.86749504  0.70851177  0.14447433     0.11100
C384        C  0.89266892  0.68012011  0.13899515    -0.06000
C385        C  0.88843424  0.66075830  0.10679978    -0.17200
C386        C  0.85994626  0.66938825  0.07997099     0.11200
S387        S  0.87331063  0.73749303  0.18241510    -0.32200
S388        S  0.85780509  0.64417746  0.03854270    -0.32200
H389        H  0.81693046  0.65004036  0.03098164     0.29200
H390        H  0.91518752  0.73393788  0.18576428     0.29200
H391        H  0.81926488  0.73835512  0.12239903     0.19700
H392        H  0.90796394  0.63921388  0.10229065     0.19800
C393        C  0.64873719  0.19142412  0.07663133    -0.06100
C394        C  0.65781054  0.16095076  0.09486748    -0.17200
C395        C  0.63208199  0.14775924  0.12213025     0.11100
C396        C  0.59656322  0.16546148  0.13137635    -0.06000
C397        C  0.58704025  0.19533485  0.11235677    -0.17200
C398        C  0.61240469  0.20832538  0.08502945     0.11200
S399        S  0.64673289  0.10902370  0.14483759    -0.32200
S400        S  0.59637803  0.24643299  0.06177366    -0.32200
H401        H  0.61278786  0.23794476  0.02710247     0.29200
H402        H  0.60768166  0.09858949  0.15438411     0.29200
H403        H  0.68554364  0.14778286  0.08845571     0.19700
H404        H  0.55974517  0.20895265  0.11931232     0.19800
C405        C  0.60030030  0.17304806  0.32529547    -0.06100
C406        C  0.63254375  0.15233904  0.33595681    -0.17200
C407        C  0.66009604  0.16301343  0.36276465     0.11100
C408        C  0.65472941  0.19478277  0.37993780    -0.06000
C409        C  0.62223034  0.21522798  0.36926967    -0.17200
C410        C  0.59537733  0.20497073  0.34200512     0.11200
S411        S  0.70227906  0.13576414  0.37236634    -0.32200
S412        S  0.55554375  0.23392740  0.32975060    -0.32200
H413        H  0.55380582  0.22522021  0.29211623     0.29200
H414        H  0.73033424  0.16209569  0.37588807     0.29200
H415        H  0.63662148  0.12801335  0.32280420     0.19700
H416        H  0.61779411  0.23963583  0.38217514     0.19800
C417        C  0.83669879  0.29589930  0.08299027    -0.06100
C418        C  0.86401233  0.32159396  0.07394110    -0.17200
C419        C  0.89122113  0.33380392  0.10011386     0.11100
C420        C  0.89228483  0.31910109  0.13585341    -0.06000
C421        C  0.86443215  0.29372496  0.14494948    -0.17200
C422        C  0.83668769  0.28206129  0.11903520     0.11200
S423        S  0.92404918  0.36776333  0.08601408    -0.32200
S424        S  0.80382978  0.24810329  0.13303244    -0.32200
H425        H  0.80439683  0.23122614  0.09884934     0.29200
H426        H  0.92962723  0.38115129  0.12161196     0.29200
H427        H  0.86393326  0.33238586  0.04631356     0.19700
H428        H  0.86538602  0.28194012  0.17207044     0.19800
C429        C  0.83771555  0.29761653  0.37795193    -0.06100
C430        C  0.83764443  0.28108935  0.34374302    -0.17200
C431        C  0.86536013  0.28959982  0.31612716     0.11100
C432        C  0.89257346  0.31646211  0.32212781    -0.06000
C433        C  0.89125281  0.33402089  0.35580585    -0.17200
C434        C  0.86428041  0.32478651  0.38381081     0.11200
S435        S  0.86589566  0.26385786  0.27498196    -0.32200
S436        S  0.86521839  0.34854628  0.42630250    -0.32200
H437        H  0.82436090  0.34413804  0.43513853     0.29200
H438        H  0.90778221  0.26462553  0.26979650     0.29200
H439        H  0.81735284  0.26010232  0.33930654     0.19700
H440        H  0.91201272  0.35461483  0.36053724     0.19800
C441        C  0.40060218  0.17682003  0.32806670    -0.06100
C442        C  0.37420025  0.15364932  0.34450224    -0.17200
C443        C  0.34563998  0.16413452  0.37058575     0.11100
C444        C  0.34386393  0.19859514  0.38097722    -0.06000
C445        C  0.37066827  0.22155625  0.36444928    -0.17200
C446        C  0.39899921  0.21114757  0.33836784     0.11200
S447        S  0.31119240  0.13263422  0.38775320    -0.32200
S448        S  0.43092321  0.24344556  0.31852353    -0.32200
H449        H  0.46229485  0.22273624  0.30603702     0.29200
H450        H  0.27715077  0.15366518  0.38522806     0.29200
H451        H  0.37513699  0.12740267  0.33611708     0.19700
H452        H  0.36992023  0.24797463  0.37218718     0.19800
C453        C  0.34456105  0.19665429  0.07973377    -0.06100
C454        C  0.37650689  0.21714011  0.09137422    -0.17200
C455        C  0.40350771  0.20602242  0.11848791     0.11100
C456        C  0.39855041  0.17373620  0.13438744    -0.06000
C457        C  0.36687654  0.15308374  0.12279244    -0.17200
C458        C  0.33964324  0.16429191  0.09586312     0.11200
S459        S  0.44380542  0.23335015  0.13337093    -0.32200
S460        S  0.29809883  0.13698030  0.08490421    -0.32200
H461        H  0.26952478  0.16311172  0.08207639     0.29200
H462        H  0.43452557  0.26078670  0.11004781     0.29200
H463        H  0.38028832  0.24192697  0.07908493     0.19700
H464        H  0.36284563  0.12846288  0.13545420     0.19800
C465        C  0.10249887  0.31604988  0.32189003    -0.06100
C466        C  0.10598335  0.33539019  0.35418488    -0.17200
C467        C  0.13255020  0.32601473  0.38237150     0.11100
C468        C  0.15641462  0.29678533  0.37806049    -0.06000
C469        C  0.15392940  0.27804087  0.34534048    -0.17200
C470        C  0.12671776  0.28692322  0.31752789     0.11200
S471        S  0.13393161  0.35199956  0.42329071    -0.32200
S472        S  0.12317478  0.25921381  0.27808987    -0.32200
H473        H  0.08172878  0.26347788  0.27222249     0.29200
H474        H  0.17334438  0.34389608  0.43407904     0.29200
H475        H  0.08716102  0.35752147  0.35775450     0.19700
H476        H  0.17213240  0.25549190  0.34213042     0.19800
C477        C  0.10241436  0.31985090  0.13563662    -0.06100
C478        C  0.12838646  0.29279975  0.14352327    -0.17200
C479        C  0.15536641  0.28083561  0.11702312     0.11100
C480        C  0.15646495  0.29620871  0.08178100    -0.06000
C481        C  0.13107619  0.32356921  0.07393641    -0.17200
C482        C  0.10450665  0.33593456  0.10069699     0.11200
S483        S  0.18601574  0.24483421  0.12924802    -0.32200
S484        S  0.07364625  0.37176279  0.08843483    -0.32200
H485        H  0.06858093  0.38383397  0.12470181     0.29200
H486        H  0.18610007  0.22997668  0.09395147     0.29200
H487        H  0.12645325  0.28003650  0.17007344     0.19700
H488        H  0.13218627  0.33549133  0.04688567     0.19800
C489        C  0.89720883  0.08786330  0.48769757    -0.06100
C490        C  0.86728861  0.08909459  0.46046632    -0.17200
C491        C  0.84051992  0.11630663  0.45832255     0.11100
C492        C  0.84354040  0.14300476  0.48403931    -0.06000
C493        C  0.87325615  0.14109705  0.00695321    -0.17200
C494        C  0.89983021  0.11372881  0.00940282     0.11200
S495        S  0.80459280  0.11621738  0.42102334    -0.32200
S496        S  0.93633197  0.11399439  0.04625391    -0.32200
H497        H  0.93919680  0.07870543  0.05000541     0.29200
H498        H  0.80564351  0.15127342  0.41460979     0.29200
H499        H  0.86560963  0.06917773  0.44002963     0.19700
H500        H  0.87567768  0.16149548  0.02674828     0.19800
C501        C  0.10408408  0.08682556  0.48483750    -0.06100
C502        C  0.09764461  0.11239405  0.00276875    -0.17200
C503        C  0.12444748  0.13934408  0.00555701     0.11100
C504        C  0.15795869  0.14171156  0.48765281    -0.06000
C505        C  0.16368006  0.11563936  0.46193810    -0.17200
C506        C  0.13663364  0.08869453  0.45964556     0.11200
S507        S  0.11429046  0.17057498  0.04062153    -0.32200
S508        S  0.14418038  0.05870238  0.42277467    -0.32200
H509        H  0.10325429  0.05177782  0.41699401     0.29200
H510        H  0.15487035  0.17694962  0.04888598     0.29200
H511        H  0.07185328  0.11145876  0.02115827     0.19700
H512        H  0.18815951  0.11722622  0.44213627     0.19800
C513        C  0.10217759  0.90999937  0.48010603    -0.06100
C514        C  0.09634052  0.88425276  0.00530656    -0.17200
C515        C  0.12308421  0.85718518  0.00847541     0.11100
C516        C  0.15641749  0.85524115  0.48457470    -0.06000
C517        C  0.16386001  0.88236989  0.46036579    -0.17200
C518        C  0.13670408  0.90926036  0.45718465     0.11200
S519        S  0.11319556  0.82627907  0.04417926    -0.32200
S520        S  0.14704769  0.94087551  0.42232787    -0.32200
H521        H  0.10667844  0.94888059  0.41489542     0.29200
H522        H  0.15381013  0.81965381  0.05222331     0.29200
H523        H  0.07067075  0.88553512  0.02381289     0.19700
H524        H  0.19011892  0.88185414  0.44253586     0.19800
C525        C  0.89681196  0.91075016  0.48667819    -0.06100
C526        C  0.86398812  0.91143325  0.46239477    -0.17200
C527        C  0.83700949  0.88442821  0.46060008     0.11100
C528        C  0.84286939  0.85579431  0.48353749    -0.06000
C529        C  0.87484417  0.85531458  0.00840721    -0.17200
C530        C  0.90142950  0.88260438  0.01015760     0.11200
S531        S  0.79709724  0.88741347  0.42705839    -0.32200
S532        S  0.94081155  0.88064068  0.04436375    -0.32200
H533        H  0.94409639  0.91572814  0.04936386     0.29200
H534        H  0.79884000  0.85326479  0.41653698     0.29200
H535        H  0.86007833  0.93277357  0.44386193     0.19700
H536        H  0.87901600  0.83412787  0.02710885     0.19800
C537        C  0.65895509  0.35629053  0.48078912    -0.06100
C538        C  0.63491476  0.36199176  0.44939198    -0.17200
C539        C  0.60769985  0.38882751  0.44791061     0.11100
C540        C  0.60359751  0.41023064  0.47874950    -0.06000
C541        C  0.62610927  0.40441736  0.00939108    -0.17200
C542        C  0.65434782  0.37818449  0.00988624     0.11200
S543        S  0.57820928  0.39382105  0.40640078    -0.32200
S544        S  0.68832583  0.37666976  0.04863423    -0.32200
H545        H  0.72224649  0.36840692  0.02709620     0.29200
H546        H  0.57382605  0.42906486  0.40867598     0.29200
H547        H  0.63661826  0.34498769  0.42600184     0.19700
H548        H  0.62460661  0.42175622  0.03250418     0.19800
C549        C  0.39526529  0.41062859  0.48252817    -0.06100
C550        C  0.36666781  0.40565171  0.01435874    -0.17200
C551        C  0.33738127  0.38037435  0.01325385     0.11100
C552        C  0.33783001  0.35810199  0.48274841    -0.06000
C553        C  0.36275942  0.36367314  0.45180843    -0.17200
C554        C  0.39115298  0.38964981  0.45128835     0.11200
S555        S  0.30509006  0.37642607  0.05322087    -0.32200
S556        S  0.42202040  0.39398004  0.41037465    -0.32200
H557        H  0.42873630  0.42888124  0.41344412     0.29200
H558        H  0.27012891  0.37027839  0.03247060     0.29200
H559        H  0.36997420  0.42069357  0.03916976     0.19700
H560        H  0.36087797  0.34714446  0.42803711     0.19800
C561        C  0.39774910  0.58745458  0.48779286    -0.06100
C562        C  0.39853384  0.60890358  0.45687261    -0.17200
C563        C  0.37275594  0.63682787  0.45417930     0.11100
C564        C  0.34475672  0.64318058  0.48300035    -0.06000
C565        C  0.34121267  0.62130162  0.01390260    -0.17200
C566        C  0.36793535  0.59423181  0.01750573     0.11200
S567        S  0.37815499  0.66500750  0.41492321    -0.32200
S568        S  0.36408065  0.56847947  0.05867298    -0.32200
H569        H  0.40485250  0.55929026  0.06033220     0.29200
H570        H  0.40912426  0.64731959  0.39676203     0.29200
H571        H  0.42021074  0.60397655  0.43512093     0.19700
H572        H  0.31927817  0.62556317  0.03563898     0.19800
C573        C  0.60425959  0.58618968  0.47892392    -0.06100
C574        C  0.63143612  0.58833058  0.00753839    -0.17200
C575        C  0.65899531  0.61503497  0.00781670     0.07100
C576        C  0.65779409  0.64149126  0.48057546    -0.06000
C577        C  0.63139249  0.63701230  0.45066797    -0.17200
C578        C  0.60499851  0.60959852  0.44939023     0.11200
S579        S  0.69612461  0.61479327  0.04407218    -0.32200
S580        S  0.57212818  0.60645141  0.40991868    -0.32200
H581        H  0.56874873  0.57106841  0.41047200     0.29200
H582        H  0.72758490  0.62648202  0.02128299     0.29200
H583        H  0.63189286  0.56987733  0.02977657     0.19700
H584        H  0.63059718  0.65543480  0.42841568     0.19800
N585        N  0.49888983  0.54957905  0.98594680    -0.36600
N586        N  0.56209089  0.49815812  0.48188096    -0.57100
N587        N  0.49945231  0.44674526  0.48139239    -0.36600
N588        N  0.43547627  0.49906633  0.99109619    -0.57100
C589        C  0.53242919  0.56816319  0.99139703     0.27000
C590        C  0.46716211  0.56894666  0.99586714     0.27000
C591        C  0.53236360  0.42732478  0.48701427     0.27000
C592        C  0.46692035  0.42742172  0.48887840     0.27000
C593        C  0.58341413  0.52436326  0.97619610     0.35600
C594        C  0.58501885  0.47078407  0.47482153     0.35600
C595        C  0.41257549  0.52696477  0.98657408     0.35600
C596        C  0.41401794  0.47145992  0.48170793     0.35600
C597        C  0.52186924  0.59970208  0.00491892    -0.21800
C598        C  0.48066427  0.60018947  0.00775635    -0.21800
C599        C  0.52057285  0.39517871  0.49792353    -0.21800
C600        C  0.47925391  0.39522883  0.49902295    -0.21800
C601        C  0.62350424  0.51528390  0.46406051    -0.22900
C602        C  0.62327501  0.48060806  0.46394796    -0.22900
C603        C  0.37337794  0.51803617  0.97822866    -0.22900
C604        C  0.37244739  0.48343188  0.97721119    -0.22900
C605        C  0.57203757  0.55831998  0.98198250    -0.18200
C606        C  0.42625789  0.56036366  0.99127530    -0.18200
C607        C  0.42640296  0.43739936  0.48430808    -0.18200
C608        C  0.57258808  0.43705686  0.48004763    -0.18200
H609        H  0.54175367  0.62042095  0.01150657     0.14700
H610        H  0.46261320  0.62137237  0.01688660     0.14700
H611        H  0.53973147  0.37372880  0.50392385     0.14700
H612        H  0.46041919  0.37387618  0.50608375     0.14700
H613        H  0.64887779  0.53121640  0.45719602     0.12900
H614        H  0.64843131  0.46447399  0.45687194     0.12900
H615        H  0.34810137  0.53469062  0.97331595     0.12900
H616        H  0.34633285  0.46813785  0.97127057     0.12900
H617        H  0.49735446  0.52696338  0.97158014     0.26200
H618        H  0.49905089  0.47034173  0.46881850     0.26200
N619        N  0.00032496  0.04952346  0.97876698    -0.36600
N620        N  0.06207427  0.99835930  0.97507925    -0.57100
N621        N  0.99961333  0.94762881  0.97977703    -0.36600
N622        N  0.93790072  0.99867804  0.98102783    -0.57100
C623        C  0.03264566  0.06779163  0.96796081     0.27000
C624        C  0.96727069  0.06817593  0.97118369     0.27000
C625        C  0.03183910  0.92918901  0.96919774     0.27000
C626        C  0.96652284  0.92924419  0.97202647     0.27000
C627        C  0.08472332  0.02555457  0.98315722     0.35600
C628        C  0.08421544  0.97099218  0.98407316     0.35600
C629        C  0.91571727  0.02617864  0.98947507     0.35600
C630        C  0.91537221  0.97148418  0.98996164     0.35600
C631        C  0.01997620  0.09826173  0.95291086    -0.21800
C632        C  0.97864869  0.09853265  0.95500623    -0.21800
C633        C  0.01913645  0.89891644  0.95405061    -0.21800
C634        C  0.97780614  0.89896248  0.95580286    -0.21800
C635        C  0.12154097  0.01549468  0.99731205    -0.22900
C636        C  0.12121310  0.98075537  0.99790764    -0.22900
C637        C  0.87874401  0.01648191  0.00370826    -0.22900
C638        C  0.87854898  0.98171172  0.00407476    -0.22900
C639        C  0.07310093  0.05906295  0.97529703    -0.18200
C640        C  0.92759304  0.05969976  0.98179668    -0.18200
C641        C  0.92695296  0.93778128  0.98287887    -0.18200
C642        C  0.07218803  0.93755376  0.97690319    -0.18200
H643        H  0.03863351  0.11857204  0.94249291     0.14700
H644        H  0.95923997  0.11908194  0.94645144     0.14700
H645        H  0.03776768  0.87853033  0.94380471     0.14700
H646        H  0.95833513  0.87861424  0.94714559     0.14700
H647        H  0.14615449  0.03147086  0.00587100     0.12900
H648        H  0.14555902  0.96456602  0.00693680     0.12900
H649        H  0.85434906  0.03273722  0.01248382     0.12900
H650        H  0.85398100  0.96582891  0.01321313     0.12900
H651        H  0.00102294  0.02786331  0.99514757     0.26200
H652        H  0.00045520  0.96912424  0.99625464     0.26200
O653        O  0.16762565  0.27432702  0.52641507    -0.78400
C654        C  0.18158042  0.28436965  0.90481015     0.82600
O655        O  0.22284881  0.16614812  0.97915479    -0.79600
O656        O  0.30492607  0.24336650  0.90422455    -0.81000
O657        O  0.30197406  0.31392262  0.51323635    -0.80800
O658        O  0.22097121  0.28774350  0.56060778    -0.79500
Zn659      Zn  0.18935465  0.24776797  0.97888394     1.55700
O660        O  0.29777121  0.31705200  0.94910599    -0.80900
Cd661      Cd  0.26810207  0.27218941  0.52729452     1.59700
Cd662      Cd  0.26916923  0.20098433  0.97911043     1.59600
O663        O  0.30500074  0.24070944  0.55762799    -0.80900
O664        O  0.24758819  0.24830580  0.97893392    -1.91400
Cd665      Cd  0.26677018  0.27365161  0.93441954     1.59900
O666        O  0.30452591  0.19197304  0.52689214    -0.80800
O667        O  0.21939645  0.28727901  0.90039735    -0.79500
C668        C  0.18492190  0.17050048  0.98071547     0.83100
C669        C  0.18315067  0.28720660  0.55525667     0.82700
O670        O  0.16634096  0.27034021  0.93334163    -0.78400
C671        C  0.30849578  0.32905050  0.98028534     0.83500
O672        O  0.16917518  0.19986342  0.98087381    -0.78500
C673        C  0.31602075  0.21007750  0.55388966     0.83700
C674        C  0.31589098  0.21256849  0.90665838     0.84000
O675        O  0.30433885  0.19327959  0.93289154    -0.80900
O676        O  0.82666936  0.27309698  0.93388251    -0.78400
C677        C  0.80947536  0.28639348  0.55625415     0.82600
O678        O  0.77718773  0.16536505  0.97920508    -0.79600
O679        O  0.68768838  0.23712476  0.55540200    -0.81000
O680        O  0.69288860  0.31205084  0.94943641    -0.80800
O681        O  0.77236707  0.28611525  0.90076760    -0.79500
Zn682      Zn  0.80569503  0.24808907  0.97911526     1.55700
O683        O  0.69266332  0.31156824  0.51247371    -0.80900
Cd684      Cd  0.72654493  0.27025616  0.93513868     1.59700
Cd685      Cd  0.72847614  0.19790665  0.97897715     1.59600
O686        O  0.69043225  0.23909741  0.90485699    -0.80900
O687        O  0.74735863  0.24604478  0.97960929    -1.91400
Cd688      Cd  0.72577184  0.26934847  0.52702780     1.59900
O689        O  0.69429419  0.18853747  0.93208698    -0.80800
O690        O  0.77162984  0.28506103  0.56168912    -0.79500
C691        C  0.81490792  0.17095855  0.97963618     0.83100
C692        C  0.81025756  0.28599415  0.90527324     0.82700
O693        O  0.82587414  0.27486918  0.52701349    -0.78400
C694        C  0.68199557  0.32454443  0.98033464     0.83500
O695        O  0.82923515  0.20082101  0.97989734    -0.78500
C696        C  0.68143754  0.20789962  0.90640881     0.83700
C697        C  0.67809803  0.20618867  0.55143540     0.84000
O698        O  0.69261751  0.18793376  0.52566295    -0.80900
O699        O  0.82533770  0.72494811  0.52816794    -0.78400
C700        C  0.81125891  0.71379262  0.91005932     0.82600
O701        O  0.77699977  0.83148546  0.98326131    -0.79600
O702        O  0.69296491  0.76181718  0.90651054    -0.81000
O703        O  0.69128647  0.68586650  0.51265728    -0.80800
O704        O  0.77097703  0.71150517  0.56133852    -0.79500
Zn705      Zn  0.80541597  0.74929659  0.98405108     1.55700
O706        O  0.69218038  0.68551430  0.95024755    -0.80900
Cd707      Cd  0.72499801  0.72775036  0.52736702     1.59700
Cd708      Cd  0.72908373  0.79855879  0.98353237     1.59600
O709        O  0.69061258  0.76069636  0.55829252    -0.80900
O710        O  0.74719985  0.75042028  0.98301903    -1.91400
Cd711      Cd  0.72625430  0.72808861  0.93769020     1.59900
O712        O  0.69628677  0.81037016  0.52951480    -0.80800
O713        O  0.77348126  0.71310404  0.90480929    -0.79500
C714        C  0.81471845  0.82621256  0.98395159     0.83100
C715        C  0.80891063  0.71206079  0.55670042     0.82700
O716        O  0.82691756  0.72591766  0.93919024    -0.78400
C717        C  0.68213620  0.67136244  0.98069945     0.83500
O718        O  0.82924628  0.79641034  0.98502057    -0.78500
C719        C  0.68376668  0.79234766  0.55643578     0.83700
C720        C  0.68403003  0.79304543  0.90957635     0.84000
O721        O  0.69518409  0.81009058  0.93747017    -0.80900
O722        O  0.17038674  0.72630262  0.93775590    -0.78400
C723        C  0.18771600  0.71235791  0.55684977     0.82600
O724        O  0.22180280  0.83140412  0.98306251    -0.79600
O725        O  0.30734327  0.75990796  0.55773958    -0.81000
O726        O  0.30421017  0.68530313  0.95202405    -0.80800
O727        O  0.22417039  0.71244707  0.90410719    -0.79500
Zn728      Zn  0.19157862  0.74929559  0.98316099     1.55700
O729        O  0.30716520  0.68602184  0.51357478    -0.80900
Cd730      Cd  0.27052660  0.72718110  0.93805975     1.59700
Cd731      Cd  0.26959482  0.79825913  0.98234523     1.59600
O732        O  0.30723496  0.75863106  0.90786071    -0.80900
O733        O  0.24972932  0.75054920  0.98286887    -1.91400
Cd734      Cd  0.27205863  0.72736792  0.52755811     1.59900
O735        O  0.30371255  0.80844933  0.93563572    -0.80800
O736        O  0.22562872  0.71161612  0.56158385    -0.79500
C737        C  0.18405546  0.82622461  0.98433512     0.83100
C738        C  0.18628599  0.71354881  0.90890749     0.82700
O739        O  0.17173335  0.72488754  0.52793503    -0.78400
C740        C  0.31581738  0.67300665  0.98280497     0.83500
O741        O  0.16921552  0.79657563  0.98458923    -0.78500
C742        C  0.31692440  0.78968610  0.90977182     0.83700
C743        C  0.31799905  0.79069449  0.55441208     0.84000
O744        O  0.30622244  0.80857804  0.52714390    -0.80900
N745        N  0.99609868  0.34163118  0.67134391    -0.36600
N746        N  0.05637686  0.33844110  0.72914215    -0.57100
N747        N  0.99530100  0.33713130  0.78636928    -0.36600
N748        N  0.93515299  0.34057689  0.72889687    -0.57100
C749        C  0.02885520  0.33094969  0.65235938     0.27000
C750        C  0.96335357  0.33120737  0.65237676     0.27000
C751        C  0.02752868  0.32505463  0.80498551     0.27000
C752        C  0.96219088  0.32652733  0.80484490     0.27000
C753        C  0.08039671  0.34382642  0.69955472     0.35600
C754        C  0.08003669  0.34063310  0.75933072     0.35600
C755        C  0.91176657  0.34617744  0.69905734     0.35600
C756        C  0.91136854  0.34454910  0.75890318     0.35600
C757        C  0.01680987  0.31420362  0.62062559    -0.21800
C758        C  0.97548978  0.31428531  0.62068731    -0.21800
C759        C  0.01480529  0.30733208  0.83603778    -0.21800
C760        C  0.97357051  0.30819069  0.83591144    -0.21800
C761        C  0.11928029  0.35062004  0.71104869    -0.22900
C762        C  0.11907329  0.34845019  0.74902328    -0.22900
C763        C  0.87321801  0.35496255  0.71013810    -0.22900
C764        C  0.87297841  0.35395682  0.74817615    -0.22900
C765        C  0.06932299  0.33605104  0.66291356    -0.18200
C766        C  0.92284158  0.33698936  0.66276512    -0.18200
C767        C  0.92197233  0.33323704  0.79461612    -0.18200
C768        C  0.06816614  0.32988200  0.79493846    -0.18200
H769        H  0.03577278  0.30258487  0.59985544     0.14700
H770        H  0.95659778  0.30278604  0.59993134     0.14700
H771        H  0.03327406  0.29460930  0.85640870     0.14700
H772        H  0.95422790  0.29618946  0.85616866     0.14700
H773        H  0.14551472  0.35451855  0.69376682     0.12900
H774        H  0.14504971  0.35043389  0.76685130     0.12900
H775        H  0.84740796  0.35946959  0.69261014     0.12900
H776        H  0.84694108  0.35742040  0.76580369     0.12900
H777        H  0.99615124  0.35717866  0.69454572     0.26200
H778        H  0.99591943  0.35373740  0.76394227     0.26200
N779        N  0.99914181  0.67365320  0.78876329    -0.36600
N780        N  0.05933562  0.66841053  0.73165862    -0.57100
N781        N  0.99886665  0.66853587  0.67457997    -0.36600
N782        N  0.93858792  0.67336009  0.73216761    -0.57100
C783        C  0.03223233  0.68444746  0.80673958     0.27000
C784        C  0.96696247  0.68582890  0.80730521     0.27000
C785        C  0.03219067  0.67738825  0.65537513     0.27000
C786        C  0.96687355  0.68065495  0.65568823     0.27000
C787        C  0.08234816  0.66348095  0.76187031     0.35600
C788        C  0.08215875  0.66017117  0.70215477     0.35600
C789        C  0.91502664  0.66951201  0.76229119     0.35600
C790        C  0.91497224  0.66784306  0.70258973     0.35600
C791        C  0.02090351  0.70351981  0.83721791    -0.21800
C792        C  0.97959386  0.70422326  0.83768076    -0.21800
C793        C  0.02120285  0.69500818  0.62368190    -0.21800
C794        C  0.97990290  0.69696242  0.62382603    -0.21800
C795        C  0.11964701  0.65087819  0.75169736    -0.22900
C796        C  0.11955624  0.64883428  0.71368885    -0.22900
C797        C  0.87641892  0.66057584  0.75194054    -0.22900
C798        C  0.87638068  0.65951160  0.71392650    -0.22900
C799        C  0.07219198  0.67605575  0.79711663    -0.18200
C800        C  0.92655113  0.67969525  0.79796508    -0.18200
C801        C  0.92625926  0.67646057  0.66620639    -0.18200
C802        C  0.07206540  0.66914377  0.66555488    -0.18200
H803        H  0.04031048  0.71570292  0.85708461     0.14700
H804        H  0.96100569  0.71703880  0.85788739     0.14700
H805        H  0.04083492  0.70560658  0.60273463     0.14700
H806        H  0.96161256  0.70930907  0.60304599     0.14700
H807        H  0.14500781  0.64578376  0.76958164     0.12900
H808        H  0.14485047  0.64184114  0.69641231     0.12900
H809        H  0.85054266  0.65714117  0.76978369     0.12900
H810        H  0.85044783  0.65512531  0.69658365     0.12900
H811        H  0.99842072  0.65622688  0.76724094     0.26200
H812        H  0.99785229  0.65268939  0.69766949     0.26200
N813        N  0.50207396  0.84671414  0.67455786    -0.36600
N814        N  0.56247752  0.84927864  0.73206494    -0.57100
N815        N  0.50205659  0.84440061  0.78931253    -0.36600
N816        N  0.44152987  0.84256507  0.73185879    -0.57100
C817        C  0.53553722  0.83721244  0.65595338     0.27000
C818        C  0.47029932  0.83447392  0.65560121     0.27000
C819        C  0.53546438  0.83535352  0.80818993     0.27000
C820        C  0.47022829  0.83176828  0.80813087     0.27000
C821        C  0.58584412  0.85513835  0.70218449     0.35600
C822        C  0.58579115  0.85431328  0.76201300     0.35600
C823        C  0.41754823  0.84634721  0.70206156     0.35600
C824        C  0.41749405  0.84480700  0.76188485     0.35600
C825        C  0.52479812  0.81915610  0.62464231    -0.21800
C826        C  0.48360536  0.81765637  0.62428881    -0.21800
C827        C  0.52466429  0.81748080  0.83979781    -0.21800
C828        C  0.48345996  0.81524743  0.83977049    -0.21800
C829        C  0.62388475  0.86517357  0.71316005    -0.22900
C830        C  0.62388482  0.86453562  0.75120786    -0.22900
C831        C  0.37820091  0.85193016  0.71316910    -0.22900
C832        C  0.37816693  0.85098325  0.75119808    -0.22900
C833        C  0.57544748  0.84509083  0.66608055    -0.18200
C834        C  0.42957232  0.83824080  0.66574815    -0.18200
C835        C  0.42950940  0.83539469  0.79784979    -0.18200
C836        C  0.57538900  0.84312260  0.79780671    -0.18200
H837        H  0.54452009  0.80790159  0.60424278     0.14700
H838        H  0.46556990  0.80504251  0.60365692     0.14700
H839        H  0.54438963  0.80682163  0.86057817     0.14700
H840        H  0.46536456  0.80255174  0.86050386     0.14700
H841        H  0.64962962  0.87016895  0.69559630     0.12900
H842        H  0.64961850  0.86885447  0.76882530     0.12900
H843        H  0.35197587  0.85427325  0.69567677     0.12900
H844        H  0.35190100  0.85254342  0.76886821     0.12900
H845        H  0.50084523  0.86280709  0.69729155     0.26200
H846        H  0.50082371  0.86048544  0.76648043     0.26200
N847        N  0.49759339  0.15088906  0.67418820    -0.36600
N848        N  0.43509019  0.15517267  0.73000940    -0.57100
N849        N  0.49911320  0.15784293  0.78460651    -0.36600
N850        N  0.56177052  0.15076280  0.72870207    -0.57100
C851        C  0.46442957  0.14601202  0.65349727     0.27000
C852        C  0.52973701  0.14362896  0.65281721     0.27000
C853        C  0.46653446  0.15518344  0.80672821     0.27000
C854        C  0.53183767  0.15318176  0.80597955     0.27000
C855        C  0.41375067  0.16411055  0.69977531     0.35600
C856        C  0.41438375  0.16705696  0.75939259     0.35600
C857        C  0.58293792  0.15849982  0.69784230     0.35600
C858        C  0.58383528  0.16189623  0.75751563     0.35600
C859        C  0.47548460  0.13448625  0.61873587    -0.21800
C860        C  0.51685601  0.13291190  0.61832473    -0.21800
C861        C  0.47858843  0.14798863  0.84262279    -0.21800
C862        C  0.51994451  0.14672195  0.84214986    -0.21800
C863        C  0.37866349  0.18058837  0.71004769    -0.22900
C864        C  0.37901942  0.18238537  0.74792874    -0.22900
C865        C  0.61916556  0.17343603  0.70717729    -0.22900
C866        C  0.61977610  0.17550326  0.74505233    -0.22900
C867        C  0.42583136  0.15793221  0.66298016    -0.18200
C868        C  0.56957634  0.15287802  0.66131611    -0.18200
C869        C  0.57150630  0.16070140  0.79489772    -0.18200
C870        C  0.42726992  0.16469127  0.79644217    -0.18200
H871        H  0.45591181  0.12984245  0.59542689     0.14700
H872        H  0.53543856  0.12683421  0.59461310     0.14700
H873        H  0.45966404  0.14580170  0.86693680     0.14700
H874        H  0.53914517  0.14342201  0.86603627     0.14700
H875        H  0.35560672  0.19082779  0.69212580     0.12900
H876        H  0.35635474  0.19436863  0.76499166     0.12900
H877        H  0.64232829  0.18265738  0.68865312     0.12900
H878        H  0.64343268  0.18667063  0.76144176     0.12900
H879        H  0.49855450  0.16501247  0.69836749     0.26200
H880        H  0.49930882  0.16866517  0.75834666     0.26200
C881        C  0.34481145  0.80526747  0.58335971    -0.06100
C882        C  0.35332859  0.78511481  0.61464478    -0.17200
C883        C  0.38010258  0.79569700  0.64199600     0.11100
C884        C  0.39852809  0.82752202  0.63879598    -0.06000
C885        C  0.39011284  0.84804284  0.60813022    -0.17200
C886        C  0.36343715  0.83749631  0.58054158     0.11200
S887        S  0.39253188  0.76758494  0.67984585    -0.32200
S888        S  0.35609191  0.86602749  0.54221262    -0.32200
H889        H  0.31442536  0.86864656  0.54847197     0.29200
H890        H  0.36687778  0.74096297  0.66986636     0.29200
H891        H  0.33960405  0.76049245  0.61747505     0.19700
H892        H  0.40491089  0.87230330  0.60547743     0.19800
C893        C  0.34432625  0.80357289  0.88085145    -0.06100
C894        C  0.35063671  0.78411038  0.84877732    -0.17200
C895        C  0.37761769  0.79424274  0.82117657     0.11100
C896        C  0.39823835  0.82504196  0.82495501    -0.06000
C897        C  0.39140865  0.84512325  0.85616050    -0.17200
C898        C  0.36521196  0.83466255  0.88431896     0.11200
S899        S  0.38713632  0.76686896  0.78216902    -0.32200
S900        S  0.36183079  0.86150898  0.92435682    -0.32200
H901        H  0.37073936  0.83522693  0.94938716     0.29200
H902        H  0.35853784  0.74199970  0.79113071     0.29200
H903        H  0.33496633  0.76038746  0.84554197     0.19700
H904        H  0.40778313  0.86859348  0.85916071     0.19800
C905        C  0.10512308  0.67618637  0.63882087    -0.06100
C906        C  0.13252587  0.70186039  0.64763955    -0.17200
C907        C  0.16048224  0.71349731  0.62171668     0.11100
C908        C  0.16115011  0.69927249  0.58598903    -0.06000
C909        C  0.13459598  0.67301147  0.57735340    -0.17200
C910        C  0.10719243  0.66081917  0.60361399     0.11200
S911        S  0.19268979  0.74790143  0.63526249    -0.32200
S912        S  0.07532078  0.62612356  0.59037843    -0.32200
H913        H  0.06906123  0.61366908  0.62643264     0.29200
H914        H  0.19276179  0.76435473  0.60069567     0.29200
H915        H  0.13088973  0.71401468  0.67444598     0.19700
H916        H  0.13533311  0.66187310  0.54999117     0.19800
C917        C  0.15993464  0.70060962  0.87975305    -0.06100
C918        C  0.16300929  0.71500840  0.84437507    -0.17200
C919        C  0.13491991  0.70760689  0.81691918     0.11100
C920        C  0.10450656  0.68349832  0.82419460    -0.06000
C921        C  0.10277451  0.66787882  0.85912777    -0.17200
C922        C  0.12966236  0.67657992  0.88713076     0.11200
S923        S  0.13793284  0.73165165  0.77443647    -0.32200
S924        S  0.12335277  0.65658369  0.93173261    -0.32200
H925        H  0.16418139  0.65737987  0.94164266     0.29200
H926        H  0.09621428  0.73395741  0.76881634     0.29200
H927        H  0.18585003  0.73388853  0.83888215     0.19700
H928        H  0.07941829  0.64953675  0.86493381     0.19800
C929        C  0.60801324  0.83327964  0.82361223    -0.06100
C930        C  0.61459825  0.85249913  0.85544361    -0.17200
C931        C  0.64081530  0.84127508  0.88316110     0.11100
C932        C  0.66004928  0.80933612  0.87959413    -0.06000
C933        C  0.65475717  0.79118348  0.84651223    -0.17200
C934        C  0.62908276  0.80276479  0.81862800     0.11200
S935        S  0.64670139  0.86848339  0.92260490    -0.32200
S936        S  0.62125193  0.77732390  0.77780092    -0.32200
H937        H  0.64938227  0.75191011  0.78629844     0.29200
H938        H  0.68865460  0.87086541  0.91803586     0.29200
H939        H  0.59840710  0.87604428  0.85906173     0.19700
H940        H  0.66990445  0.76722297  0.84280499     0.19800
C941        C  0.66038030  0.80869048  0.58626280    -0.06100
C942        C  0.63601368  0.83663641  0.57748501    -0.17200
C943        C  0.61055890  0.85108381  0.60394848     0.11100
C944        C  0.60813820  0.83651256  0.63961943    -0.06000
C945        C  0.63408852  0.80988211  0.64897361    -0.17200
C946        C  0.66096839  0.79657352  0.62315413     0.11200
S947        S  0.58067358  0.88704373  0.59016672    -0.32200
S948        S  0.69576958  0.76488074  0.63946408    -0.32200
H949        H  0.72832019  0.77658428  0.61800502     0.29200
H950        H  0.57552234  0.90022047  0.62596367     0.29200
H951        H  0.63606261  0.84685531  0.54961119     0.19700
H952        H  0.63287506  0.79894467  0.67651415     0.19800
C953        C  0.83791298  0.70208881  0.88060800    -0.06100
C954        C  0.83943008  0.72139547  0.84812772    -0.17200
C955        C  0.86836198  0.71503494  0.82106108     0.11100
C956        C  0.89506796  0.68754801  0.82566670    -0.06000
C957        C  0.89282010  0.66765731  0.85783800    -0.17200
C958        C  0.86464953  0.67478140  0.88551128     0.11200
S959        S  0.87093207  0.74410392  0.78256871    -0.32200
S960        S  0.86444387  0.64838305  0.92633282    -0.32200
H961        H  0.82364990  0.65307862  0.93524609     0.29200
H962        H  0.91265726  0.74165439  0.77697545     0.29200
H963        H  0.81938984  0.74282493  0.84480906     0.19700
H964        H  0.91346223  0.64670560  0.86151602     0.19800
C965        C  0.83509891  0.69933169  0.58601744    -0.06100
C966        C  0.83738581  0.71828106  0.61852246    -0.17200
C967        C  0.86740555  0.71200487  0.64451767     0.11100
C968        C  0.89430659  0.68473422  0.63904946    -0.06000
C969        C  0.89109671  0.66506122  0.60696690    -0.17200
C970        C  0.86203180  0.67231158  0.58019835     0.11200
S971        S  0.87132600  0.74118781  0.68254184    -0.32200
S972        S  0.86112371  0.64662141  0.53908128    -0.32200
H973        H  0.82006464  0.65121147  0.53134614     0.29200
H974        H  0.91335182  0.73923976  0.68593326     0.29200
H975        H  0.81739161  0.73964997  0.62243473     0.19700
H976        H  0.91171886  0.64421917  0.60259586     0.19800
C977        C  0.64866039  0.19120744  0.57719810    -0.06100
C978        C  0.65744094  0.16004539  0.59410289    -0.17200
C979        C  0.63140803  0.14594087  0.62049277     0.11100
C980        C  0.59599051  0.16345965  0.63028193    -0.06000
C981        C  0.58661500  0.19396433  0.61245830    -0.17200
C982        C  0.61221942  0.20781622  0.58584609     0.11200
S983        S  0.64549358  0.10628422  0.64150365    -0.32200
S984        S  0.59627614  0.24645202  0.56362906    -0.32200
H985        H  0.61276377  0.23870149  0.52877282     0.29200
H986        H  0.60622894  0.09573360  0.65012059     0.29200
H987        H  0.68515169  0.14700185  0.58731036     0.19700
H988        H  0.55929307  0.20736636  0.61981795     0.19800
C989        C  0.59975530  0.17269344  0.82352636    -0.06100
C990        C  0.63146568  0.15171415  0.83479749    -0.17200
C991        C  0.65917149  0.16257868  0.86130473     0.11100
C992        C  0.65418787  0.19464007  0.87784291    -0.06000
C993        C  0.62234781  0.21547073  0.86638539    -0.17200
C994        C  0.59560988  0.20515659  0.83908311     0.11200
S995        S  0.70131442  0.13534331  0.87104684    -0.32200
S996        S  0.55712007  0.23477648  0.82514242    -0.32200
H997        H  0.55503009  0.22463626  0.78796851     0.29200
H998        H  0.72945565  0.16166515  0.87415861     0.29200
H999        H  0.63511279  0.12708380  0.82222868     0.19700
H1000       H  0.61841019  0.24022390  0.87862148     0.19800
C1001       C  0.83553894  0.30089652  0.58485737    -0.06100
C1002       C  0.85860918  0.32948792  0.57606570    -0.17200
C1003       C  0.88535537  0.34328319  0.60176898     0.11100
C1004       C  0.89041953  0.32732958  0.63649724    -0.06000
C1005       C  0.86650613  0.29925109  0.64551520    -0.17200
C1006       C  0.83910615  0.28598162  0.62021874     0.11200
S1007       S  0.91238080  0.38092860  0.58860945    -0.32200
S1008       S  0.81106732  0.24907255  0.63417023    -0.32200
H1009       H  0.81041825  0.23368869  0.59916726     0.29200
H1010       H  0.91793036  0.39305164  0.62476841     0.29200
H1011       H  0.85560276  0.34121969  0.54904945     0.19700
H1012       H  0.87031183  0.28680505  0.67206260     0.19800
C1013       C  0.83583649  0.30073917  0.87618798    -0.06100
C1014       C  0.83756061  0.28454019  0.84181020    -0.17200
C1015       C  0.86479154  0.29493058  0.81451305     0.11100
C1016       C  0.88967615  0.32323816  0.82102512    -0.06000
C1017       C  0.88652517  0.34039335  0.85485982    -0.17200
C1018       C  0.86002415  0.32936976  0.88252647     0.11200
S1019       S  0.86785613  0.26978077  0.77300851    -0.32200
S1020       S  0.85873175  0.35261474  0.92536061    -0.32200
H1021       H  0.81832281  0.34571074  0.93399040     0.29200
H1022       H  0.90967493  0.27267395  0.76832250     0.29200
H1023       H  0.81906222  0.26249310  0.83694592     0.19700
H1024       H  0.90566703  0.36197197  0.86006478     0.19800
C1025       C  0.39967681  0.17671397  0.82562169    -0.06100
C1026       C  0.36920655  0.15516609  0.83822558    -0.17200
C1027       C  0.34095203  0.16620591  0.86423120     0.11100
C1028       C  0.34379401  0.19933906  0.87852151    -0.06000
C1029       C  0.37463209  0.22067631  0.86598905    -0.17200
C1030       C  0.40235462  0.20987599  0.83955114     0.11200
S1031       S  0.30104155  0.13746006  0.87643955    -0.32200
S1032       S  0.44039211  0.23963586  0.82498940    -0.32200
H1033       H  0.44528962  0.22766959  0.78871981     0.29200
H1034       H  0.27087358  0.16239537  0.87760050     0.29200
H1035       H  0.36689765  0.12989508  0.82700726     0.19700
H1036       H  0.37719703  0.24604494  0.87691268     0.19800
C1037       C  0.34381634  0.19553229  0.58132267    -0.06100
C1038       C  0.37680026  0.21506632  0.59232716    -0.17200
C1039       C  0.40465820  0.20260308  0.61789932     0.11100
C1040       C  0.39935658  0.16999725  0.63286730    -0.06000
C1041       C  0.36672094  0.15024023  0.62175167    -0.17200
C1042       C  0.33873154  0.16273734  0.59627957     0.11200
S1043       S  0.44637771  0.22865992  0.63221892    -0.32200
S1044       S  0.29610888  0.13645943  0.58568540    -0.32200
H1045       H  0.26819997  0.16315718  0.58376287     0.29200
H1046       H  0.43669254  0.25706140  0.61048701     0.29200
H1047       H  0.38076917  0.24008640  0.58067490     0.19700
H1048       H  0.36239620  0.12543907  0.63390010     0.19800
C1049       C  0.09950417  0.31894237  0.82165837    -0.06100
C1050       C  0.10627573  0.33865638  0.85319678    -0.17200
C1051       C  0.13356483  0.32830613  0.88041495     0.11100
C1052       C  0.15460945  0.29758291  0.87603848    -0.06000
C1053       C  0.14831762  0.27809768  0.84428973    -0.17200
C1054       C  0.12054691  0.28812717  0.81736530     0.11200
S1055       S  0.13956096  0.35500897  0.92036317    -0.32200
S1056       S  0.11236340  0.25997166  0.77893110    -0.32200
H1057       H  0.07130285  0.26719035  0.77430472     0.29200
H1058       H  0.17962092  0.34608257  0.92793596     0.29200
H1059       H  0.08977819  0.36205145  0.85679760     0.19700
H1060       H  0.16415773  0.25432987  0.84108453     0.19800
C1061       C  0.10161781  0.32650290  0.63633703    -0.06100
C1062       C  0.12380772  0.29707471  0.64382835    -0.17200
C1063       C  0.15097370  0.28404444  0.61802546     0.11100
C1064       C  0.15625726  0.30076310  0.58382390    -0.06000
C1065       C  0.13475238  0.33053711  0.57645969    -0.17200
C1066       C  0.10796899  0.34389371  0.60260202     0.11200
S1067       S  0.17673452  0.24534314  0.62993463    -0.32200
S1068       S  0.08259526  0.38285674  0.59127016    -0.32200
H1069       H  0.07670877  0.39346326  0.62799008     0.29200
H1070       H  0.17957239  0.23247870  0.59381803     0.29200
H1071       H  0.11881602  0.28347326  0.66953370     0.19700
H1072       H  0.13903718  0.34352594  0.55027755     0.19800
C1073       C  0.89708808  0.08715430  0.98352969    -0.06100
C1074       C  0.86656652  0.08791918  0.95685154    -0.17200
C1075       C  0.83955530  0.11498792  0.95479843     0.11100
C1076       C  0.84291716  0.14201680  0.98004757    -0.06000
C1077       C  0.87327182  0.14164607  0.51145976    -0.17200
C1078       C  0.89959586  0.11413783  0.51398819     0.11200
S1079       S  0.80285256  0.11428003  0.91818559    -0.32200
S1080       S  0.93543018  0.11394526  0.55139900    -0.32200
H1081       H  0.93845530  0.07862290  0.55456068     0.29200
H1082       H  0.80328744  0.14928935  0.91142570     0.29200
H1083       H  0.86457142  0.06772984  0.93676501     0.19700
H1084       H  0.87541011  0.16180869  0.53157107     0.19800
C1085       C  0.10351911  0.08657959  0.97678729    -0.06100
C1086       C  0.09943858  0.11219625  0.51156409    -0.17200
C1087       C  0.12581096  0.13957225  0.51318375     0.11100
C1088       C  0.15823426  0.14079486  0.98182565    -0.06000
C1089       C  0.16507988  0.11436011  0.95677503    -0.17200
C1090       C  0.13776463  0.08765477  0.95345660     0.11200
S1091       S  0.11711332  0.17059642  0.54878951    -0.32200
S1092       S  0.14753640  0.05676240  0.91792587    -0.32200
H1093       H  0.10704547  0.04924700  0.91070051     0.29200
H1094       H  0.15796359  0.17781026  0.55476677     0.29200
H1095       H  0.07472396  0.11077129  0.53113208     0.19700
H1096       H  0.19082384  0.11539633  0.93834073     0.19800
C1097       C  0.10223238  0.90980047  0.97879595    -0.06100
C1098       C  0.09527239  0.88318934  0.50485941    -0.17200
C1099       C  0.12172414  0.85585237  0.50721339     0.11100
C1100       C  0.15670319  0.85546574  0.98460320    -0.06000
C1101       C  0.16328296  0.88146772  0.95879316    -0.17200
C1102       C  0.13608108  0.90822505  0.95510052     0.11200
S1103       S  0.10990936  0.82309496  0.54033853    -0.32200
S1104       S  0.14559089  0.93864736  0.91879531    -0.32200
H1105       H  0.10507299  0.94640872  0.91178107     0.29200
H1106       H  0.14999718  0.81680896  0.55061726     0.29200
H1107       H  0.06897014  0.88366076  0.52264540     0.19700
H1108       H  0.18888479  0.88013601  0.94021662     0.19800
C1109       C  0.89655864  0.91027262  0.98566205    -0.06100
C1110       C  0.86389684  0.91050303  0.96117907    -0.17200
C1111       C  0.83684667  0.88349054  0.95991143     0.11100
C1112       C  0.84239174  0.85538105  0.98368866    -0.06000
C1113       C  0.87556135  0.85520546  0.50797974    -0.17200
C1114       C  0.90204390  0.88250507  0.51032244     0.11200
S1115       S  0.79729992  0.88570389  0.92593122    -0.32200
S1116       S  0.94172616  0.87977218  0.54418685    -0.32200
H1117       H  0.94498378  0.91472510  0.55017818     0.29200
H1118       H  0.79864522  0.85122867  0.91671734     0.29200
H1119       H  0.86021658  0.93143961  0.94206060     0.19700
H1120       H  0.87996508  0.83361451  0.52607256     0.19800
C1121       C  0.65572923  0.35489355  0.98021098    -0.06100
C1122       C  0.62983400  0.35984109  0.94992129    -0.17200
C1123       C  0.60232048  0.38656704  0.94908148     0.11100
C1124       C  0.59986975  0.40873666  0.97946876    -0.06000
C1125       C  0.62827913  0.40541957  0.50967496    -0.17200
C1126       C  0.65637747  0.37913433  0.51081330     0.11200
S1127       S  0.57050653  0.39051762  0.90890842    -0.32200
S1128       S  0.68856271  0.37695402  0.55081798    -0.32200
H1129       H  0.72326614  0.36835423  0.53053351     0.29200
H1130       H  0.56567263  0.42574968  0.91061121     0.29200
H1131       H  0.63046107  0.34240190  0.92687718     0.19700
H1132       H  0.62557949  0.42233491  0.53307804     0.19800
C1133       C  0.39160706  0.41197530  0.98383332    -0.06100
C1134       C  0.37002540  0.40569259  0.51317941    -0.17200
C1135       C  0.34110498  0.38007472  0.51351841     0.11100
C1136       C  0.33383549  0.35987323  0.98127588    -0.06000
C1137       C  0.35797201  0.36728877  0.95027634    -0.17200
C1138       C  0.38638314  0.39323279  0.95108724     0.11200
S1139       S  0.30900766  0.37751963  0.55373002    -0.32200
S1140       S  0.41586632  0.40047438  0.90980592    -0.32200
H1141       H  0.42241493  0.43512911  0.91541483     0.29200
H1142       H  0.27389705  0.37091664  0.53338145     0.29200
H1143       H  0.37288471  0.42204688  0.53701921     0.19700
H1144       H  0.35558591  0.35217138  0.92544304     0.19800
C1145       C  0.39665479  0.58838360  0.98945282    -0.06100
C1146       C  0.39797954  0.60977228  0.95848796    -0.17200
C1147       C  0.37177195  0.63731616  0.95509278     0.11100
C1148       C  0.34289607  0.64327324  0.98324904    -0.06000
C1149       C  0.34376885  0.62124739  0.51376346    -0.17200
C1150       C  0.37011480  0.59375550  0.51663890     0.11200
S1151       S  0.37752322  0.66540586  0.91578595    -0.32200
S1152       S  0.36730992  0.56806482  0.55792963    -0.32200
H1153       H  0.40800493  0.55851554  0.55855490     0.29200
H1154       H  0.41052063  0.64897853  0.89930336     0.29200
H1155       H  0.42022933  0.60499451  0.93718967     0.19700
H1156       H  0.32261071  0.62578978  0.53606929     0.19800
C1157       C  0.60318084  0.58515045  0.97907603    -0.06100
C1158       C  0.63148176  0.58979138  0.50816570    -0.17200
C1159       C  0.65863942  0.61674674  0.50903520     0.07100
C1160       C  0.65736648  0.64015095  0.97974101    -0.06000
C1161       C  0.62996770  0.63606545  0.95053974    -0.17200
C1162       C  0.60335721  0.60874241  0.94968413     0.11200
S1163       S  0.69412145  0.61741031  0.54664651    -0.32200
S1164       S  0.56965420  0.60578309  0.91081605    -0.32200
H1165       H  0.56667589  0.57036434  0.91111406     0.29200
H1166       H  0.72646583  0.62889574  0.52481069     0.29200
H1167       H  0.63136163  0.57152094  0.53058853     0.19700
H1168       H  0.62862698  0.65467865  0.92850475     0.19800
loop_ 
_geom_bond_atom_site_label_1 
_geom_bond_atom_site_label_2 
_geom_bond_distance 
_geom_bond_site_symmetry_2 
_ccdc_geom_bond_type 
N1            C6   1.352       .  A
N1            C5   1.353       .  A
N1           H33   1.038       .  S
N2           C10   1.350       .  A
N2          C593   1.352       .  A
N3            C8   1.353       .  A
N3            C7   1.353       .  A
N3           H34   1.037       .  S
N4           C11   1.351       .  A
N4          C596   1.351       .  A
C5           C13   1.386       .  A
C5           C21   1.413       .  A
C6           C22   1.414       .  A
C6           C14   1.387       .  A
C7           C15   1.388       .  A
C7           C24   1.416       .  A
C8           C23   1.414       .  A
C8           C16   1.386   1_556  A
C9          N586   1.350       .  A
C9           C21   1.410       .  A
C9          C601   1.385       .  A
C10          C24   1.413       .  A
C10          C18   1.387       .  A
C11          C19   1.386       .  A
C11          C22   1.412       .  A
C12         N588   1.350       .  A
C12          C23   1.410       .  A
C12         C604   1.386       .  A
C13          C14   1.374       .  A
C13          H25   1.082       .  S
C14          H26   1.082       .  S
C15          C16   1.376   1_556  A
C15          H27   1.082   1_556  S
C16          H28   1.082       .  S
C17          C18   1.374       .  A
C17         C593   1.385       .  A
C17          H29   1.082       .  S
C18          H30   1.082       .  S
C19          C20   1.373       .  A
C19          H31   1.082       .  S
C20         C596   1.386       .  A
C20          H32   1.082       .  S
C21         C573   1.486       .  S
C22         C561   1.485       .  S
C23        C1133   1.483       .  S
C24        C1124   1.485       .  S
N35          C40   1.352   1_455  A
N35          C39   1.352       .  A
N35          H67   1.040       .  S
N36          C43   1.349   1_565  A
N36          C44   1.349       .  A
N37          C42   1.351       .  A
N37          C41   1.352   1_655  A
N37          H68   1.041   1_655  S
N38          C45   1.350   1_565  A
N38          C46   1.351       .  A
C39          C47   1.387       .  A
C39          C55   1.414       .  A
C40          C56   1.414       .  A
C40          C48   1.387       .  A
C41          C49   1.387       .  A
C41          C58   1.413       .  A
C42          C57   1.412       .  A
C42          C50   1.387       .  A
C43          C55   1.410       .  A
C43          C51   1.386       .  A
C44          C58   1.411       .  A
C44          C52   1.386       .  A
C45          C53   1.386       .  A
C45          C56   1.411       .  A
C46          C54   1.386       .  A
C46          C57   1.412       .  A
C47          C48   1.375   1_455  A
C47          H59   1.082       .  S
C48          H60   1.082       .  S
C49          C50   1.376   1_455  A
C49          H61   1.082       .  S
C50          H62   1.082       .  S
C51          C52   1.376   1_545  A
C51          H63   1.082       .  S
C52          H64   1.082       .  S
C53          C54   1.376   1_545  A
C53          H65   1.082       .  S
C54          H66   1.082       .  S
C55         C501   1.488       .  S
C56         C489   1.487       .  S
C57         C525   1.490       .  S
C58         C513   1.488       .  S
O69          C85   1.272       .  A
O69        Zn659   2.004   1_554  S
C70         C468   1.466       .  S
C70          O86   1.274       .  A
C70          O83   1.272       .  A
O71          C84   1.273       .  A
O71         Cd78   2.062       .  S
O72          C90   1.274       .  A
O72         Cd81   2.058       .  S
O73         C671   1.272   1_554  A
O73         Cd77   2.054       .  S
O74          C85   1.272       .  A
O74         Cd77   2.053       .  S
Zn75         O86   2.023       .  S
Zn75         O88   2.022       .  S
Zn75        O653   2.013       .  S
Zn75         O80   1.940       .  S
O76          C87   1.276       .  A
O76         Cd81   2.071       .  S
Cd77         O79   2.057       .  S
Cd77        O664   1.991   1_554  S
Cd78         O91   2.063       .  S
Cd78        O666   2.061       .  S
Cd78         O80   2.003       .  S
O79          C89   1.273       .  A
O80         Cd81   1.993       .  S
O80        Cd661   1.995       .  S
Cd81         O83   2.060       .  S
O82          C89   1.275       .  A
O82        Cd662   2.079   1_554  S
C84         C504   1.474       .  S
C84          O88   1.275       .  A
C85         C480   1.461       .  S
C87         C552   1.485       .  S
C87         O657   1.273       .  A
C89         C453   1.478       .  S
C90         C444   1.480       .  S
C90          O91   1.273       .  A
O92         C108   1.274       .  A
O92         Zn98   2.023       .  S
C93         C417   1.469       .  S
C93         O109   1.273       .  A
C93         O106   1.275       .  A
O94         C107   1.274       .  A
O94        Cd101   2.060       .  S
O95         C113   1.274       .  A
O95        Cd104   2.063       .  S
O96         C110   1.273       .  A
O96        Cd100   2.055       .  S
O97         C108   1.271       .  A
O97        Cd100   2.055       .  S
Zn98        O111   2.029       .  S
Zn98        O693   2.013       .  S
Zn98        O103   1.940       .  S
O99         C694   1.274   1_554  A
O99        Cd104   2.071       .  S
Cd100       O102   2.052       .  S
Cd100       O103   1.989       .  S
Cd101       O105   2.078       .  S
Cd101       O698   2.071       .  S
Cd101       O103   2.004       .  S
O102        C112   1.273       .  A
O103       Cd688   1.998       .  S
Cd104       O106   2.071       .  S
Cd104       O687   1.997   1_554  S
O105        C112   1.275       .  A
C107        C492   1.474       .  S
C107        O111   1.276       .  A
C108        C429   1.467       .  S
O109       Zn682   2.007   1_554  S
C110        C537   1.481       .  S
C110        O683   1.274       .  A
C112        C408   1.477       .  S
C113        C393   1.475       .  S
C113        O114   1.275       .  A
O114       Cd685   2.080   1_554  S
O115        C131   1.271       .  A
O115       Zn705   1.997   1_554  S
C116        C369   1.460       .  S
C116        O132   1.272       .  A
C116        O129   1.271       .  A
O117        C130   1.272       .  A
O117       Cd124   2.057       .  S
O118        C136   1.275       .  A
O118       Cd127   2.060       .  S
O119        C717   1.274   1_554  A
O119       Cd123   2.072       .  S
O120        C131   1.272       .  A
O120       Cd123   2.061       .  S
Zn121       O132   2.002       .  S
Zn121       O134   2.026       .  S
Zn121       O699   1.994       .  S
Zn121       O126   1.937       .  S
O122        C133   1.275       .  A
O122       Cd127   2.070       .  S
Cd123       O125   2.054       .  S
Cd123       O710   1.994   1_554  S
Cd124       O137   2.058       .  S
Cd124       O712   2.059       .  S
Cd124       O126   1.995       .  S
O125        C135   1.273       .  A
O126       Cd127   1.990       .  S
O126       Cd707   1.994       .  S
Cd127       O129   2.050       .  S
O128        C135   1.274       .  A
O128       Cd708   2.057   1_554  S
C130        C528   1.477       .  S
C130        O134   1.275       .  A
C131        C381   1.460       .  S
C133        C576   1.485       .  S
C133        O703   1.275       .  A
C135        C357   1.475       .  S
C136        C348   1.489       .  S
C136        O137   1.271       .  A
O138        C154   1.272       .  A
O138       Zn144   2.009       .  S
C139        C324   1.467       .  S
C139        O155   1.272       .  A
C139        O152   1.273       .  A
O140        C153   1.273       .  A
O140       Cd147   2.062       .  S
O141        C159   1.274       .  A
O141       Cd150   2.054       .  S
O142        C156   1.275       .  A
O142       Cd146   2.072       .  S
O143        C154   1.274       .  A
O143       Cd146   2.074       .  S
Zn144       O157   2.013       .  S
Zn144       O739   2.004       .  S
Zn144       O149   1.936       .  S
O145        C740   1.274   1_554  A
O145       Cd150   2.062       .  S
Cd146       O148   2.060       .  S
Cd146       O149   1.994       .  S
Cd147       O151   2.061       .  S
Cd147       O744   2.075       .  S
Cd147       O149   2.005       .  S
O148        C158   1.275       .  A
O149       Cd734   1.995       .  S
Cd150       O152   2.065       .  S
Cd150       O733   1.990   1_554  S
O151        C158   1.272       .  A
C153        C516   1.474       .  S
C153        O157   1.274       .  A
C154        C333   1.471       .  S
O155       Zn728   2.007   1_554  S
C156        C564   1.486       .  S
C156        O729   1.276       .  A
C158        C309   1.487       .  S
C159        C297   1.490       .  S
C159        O160   1.273       .  A
O160       Cd731   2.071   1_554  S
N161        C166   1.353       .  A
N161        C165   1.351   1_655  A
N161        H193   1.042       .  S
N162        C169   1.348       .  A
N162        C170   1.349       .  A
N163        C168   1.352       .  A
N163        C167   1.352   1_655  A
N163        H194   1.042       .  S
N164        C171   1.348       .  A
N164        C172   1.348       .  A
C165        C173   1.388       .  A
C165        C181   1.412       .  A
C166        C182   1.413       .  A
C166        C174   1.387       .  A
C167        C175   1.387       .  A
C167        C184   1.412       .  A
C168        C183   1.413       .  A
C168        C176   1.387       .  A
C169        C181   1.409       .  A
C169        C177   1.387       .  A
C170        C184   1.408       .  A
C170        C178   1.385       .  A
C171        C179   1.386       .  A
C171        C182   1.409       .  A
C172        C180   1.386       .  A
C172        C183   1.408       .  A
C173        C174   1.374   1_455  A
C173        H185   1.082       .  S
C174        H186   1.082       .  S
C175        C176   1.373   1_455  A
C175        H187   1.082       .  S
C176        H188   1.082       .  S
C177        C178   1.375       .  A
C177        H189   1.082       .  S
C178        H190   1.082       .  S
C179        C180   1.375       .  A
C179        H191   1.082       .  S
C180        H192   1.082       .  S
C181        C477   1.483       .  S
C182        C420   1.490       .  S
C183        C432   1.486       .  S
C184        C465   1.484       .  S
N195        C200   1.350       .  A
N195        C199   1.351   1_655  A
N195        H227   1.042       .  S
N196        C203   1.349       .  A
N196        C204   1.348       .  A
N197        C202   1.352       .  A
N197        C201   1.352   1_655  A
N197        H228   1.042       .  S
N198        C205   1.347       .  A
N198        C206   1.347       .  A
C199        C207   1.387       .  A
C199        C215   1.411       .  A
C200        C216   1.410       .  A
C200        C208   1.387       .  A
C201        C209   1.388       .  A
C201        C218   1.414       .  A
C202        C217   1.412       .  A
C202        C210   1.387       .  A
C203        C215   1.410       .  A
C203        C211   1.385       .  A
C204        C218   1.410       .  A
C204        C212   1.387       .  A
C205        C213   1.386       .  A
C205        C216   1.408       .  A
C206        C214   1.386       .  A
C206        C217   1.406       .  A
C207        C208   1.375   1_455  A
C207        H219   1.082       .  S
C208        H220   1.082       .  S
C209        C210   1.375   1_455  A
C209        H221   1.082       .  S
C210        H222   1.082       .  S
C211        C212   1.376       .  A
C211        H223   1.082       .  S
C212        H224   1.082       .  S
C213        C214   1.376       .  A
C213        H225   1.082       .  S
C214        H226   1.082       .  S
C215        C336   1.489       .  S
C216        C372   1.480       .  S
C217        C384   1.483       .  S
C218        C321   1.489       .  S
N229        C234   1.351       .  A
N229        C233   1.350       .  A
N229        H261   1.042       .  S
N230        C237   1.348       .  A
N230        C238   1.347       .  A
N231        C236   1.352       .  A
N231        C235   1.352       .  A
N231        H262   1.041       .  S
N232        C239   1.348       .  A
N232        C240   1.348       .  A
C233        C241   1.388       .  A
C233        C249   1.411       .  A
C234        C250   1.408       .  A
C234        C242   1.386       .  A
C235        C243   1.388       .  A
C235        C252   1.413       .  A
C236        C251   1.413       .  A
C236        C244   1.387       .  A
C237        C249   1.408       .  A
C237        C245   1.386       .  A
C238        C252   1.407       .  A
C238        C246   1.386       .  A
C239        C247   1.385       .  A
C239        C250   1.407       .  A
C240        C248   1.386       .  A
C240        C251   1.407       .  A
C241        C242   1.371       .  A
C241        H253   1.082       .  S
C242        H254   1.082       .  S
C243        C244   1.373       .  A
C243        H255   1.082       .  S
C244        H256   1.082       .  S
C245        C246   1.374       .  A
C245        H257   1.082       .  S
C246        H258   1.083       .  S
C247        C248   1.374       .  A
C247        H259   1.082       .  S
C248        H260   1.082       .  S
C249        C360   1.481       .  S
C250        C300   1.481       .  S
C251        C312   1.483       .  S
C252        C345   1.481       .  S
N263        C268   1.350       .  A
N263        C267   1.351       .  A
N263        H295   1.037       .  S
N264        C271   1.351       .  A
N264        C272   1.350       .  A
N265        C270   1.350       .  A
N265        C269   1.350       .  A
N265        H296   1.035       .  S
N266        C273   1.352       .  A
N266        C274   1.352       .  A
C267        C275   1.386       .  A
C267        C283   1.410       .  A
C268        C284   1.412       .  A
C268        C276   1.387       .  A
C269        C277   1.387       .  A
C269        C286   1.412       .  A
C270        C285   1.411       .  A
C270        C278   1.386       .  A
C271        C283   1.410       .  A
C271        C279   1.386       .  A
C272        C286   1.412       .  A
C272        C280   1.387       .  A
C273        C281   1.386       .  A
C273        C284   1.413       .  A
C274        C282   1.386       .  A
C274        C285   1.412       .  A
C275        C276   1.377       .  A
C275        H287   1.082       .  S
C276        H288   1.082       .  S
C277        C278   1.377       .  A
C277        H289   1.082       .  S
C278        H290   1.082       .  S
C279        C280   1.373       .  A
C279        H291   1.082       .  S
C280        H292   1.082       .  S
C281        C282   1.372       .  A
C281        H293   1.082       .  S
C282        H294   1.082       .  S
C283        C456   1.484       .  S
C284        C396   1.485       .  S
C285        C405   1.484       .  S
C286        C441   1.478       .  S
C297        C298   1.410       .  A
C297        C302   1.422       .  A
C298        C299   1.397       .  A
C298        H307   1.082       .  S
C299        C300   1.406       .  A
C299        S303   1.807       .  S
C300        C301   1.399       .  A
C301        C302   1.399       .  A
C301        H308   1.084       .  S
C302        S304   1.800       .  S
S303        H306   1.406       .  S
S304        H305   1.407       .  S
C309        C310   1.407       .  A
C309        C314   1.421       .  A
C310        C311   1.397       .  A
C310        H319   1.082       .  S
C311        C312   1.409       .  A
C311        S315   1.807       .  S
C312        C313   1.399       .  A
C313        C314   1.398       .  A
C313        H320   1.084       .  S
C314        S316   1.802       .  S
S315        H318   1.406       .  S
S316        H317   1.408       .  S
C321        C322   1.405       .  A
C321        C326   1.415       .  A
C322        C323   1.395       .  A
C322        H331   1.084       .  S
C323        C324   1.410       .  A
C323        S327   1.805       .  S
C324        C325   1.402       .  A
C325        C326   1.400       .  A
C325        H332   1.084       .  S
C326        S328   1.805       .  S
S327        H330   1.406       .  S
S328        H329   1.406       .  S
C333        C334   1.402       .  A
C333        C338   1.412       .  A
C334        C335   1.399       .  A
C334        H343   1.084       .  S
C335        C336   1.415       .  A
C335        S339   1.805       .  S
C336        C337   1.404       .  A
C337        C338   1.399       .  A
C337        H344   1.084       .  S
C338        S340   1.804       .  S
S339        H342   1.406       .  S
S340        H341   1.406       .  S
C345        C346   1.398       .  A
C345        C350   1.407       .  A
C346        C347   1.399       .  A
C346        H355   1.084       .  S
C347        C348   1.422       .  A
C347        S351   1.801       .  S
C348        C349   1.409       .  A
C349        C350   1.397       .  A
C349        H356   1.082       .  S
C350        S352   1.809       .  S
S351        H354   1.408       .  S
S352        H353   1.406       .  S
C357        C358   1.405       .  A
C357        C362   1.416       .  A
C358        C359   1.396       .  A
C358        H367   1.084       .  S
C359        C360   1.411       .  A
C359        S363   1.804       .  S
C360        C361   1.401       .  A
C361        C362   1.394       .  A
C361        H368   1.084       .  S
C362        S364   1.804       .  S
S363        H366   1.406       .  S
S364        H365   1.408       .  S
C369        C370   1.399       .  A
C369        C374   1.410       .  A
C370        C371   1.393       .  A
C370        H379   1.085       .  S
C371        C372   1.413       .  A
C371        S375   1.801       .  S
C372        C373   1.403       .  A
C373        C374   1.397       .  A
C373        H380   1.084       .  S
C374        S376   1.804       .  S
S375        H378   1.405       .  S
S376        H377   1.406       .  S
C381        C382   1.398       .  A
C381        C386   1.410       .  A
C382        C383   1.394       .  A
C382        H391   1.085       .  S
C383        C384   1.415       .  A
C383        S387   1.802       .  S
C384        C385   1.403       .  A
C385        C386   1.398       .  A
C385        H392   1.084       .  S
C386        S388   1.804       .  S
S387        H390   1.405       .  S
S388        H389   1.406       .  S
C393        C394   1.405       .  A
C393        C398   1.413       .  A
C394        C395   1.403       .  A
C394        H403   1.084       .  S
C395        C396   1.413       .  A
C395        S399   1.803       .  S
C396        C397   1.402       .  A
C397        C398   1.394       .  A
C397        H404   1.084       .  S
C398        S400   1.804       .  S
S399        H402   1.406       .  S
S400        H401   1.406       .  S
C405        C406   1.403       .  A
C405        C410   1.412       .  A
C406        C407   1.402       .  A
C406        H415   1.084       .  S
C407        C408   1.415       .  A
C407        S411   1.802       .  S
C408        C409   1.403       .  A
C409        C410   1.394       .  A
C409        H416   1.084       .  S
C410        S412   1.806       .  S
S411        H414   1.407       .  S
S412        H413   1.405       .  S
C417        C418   1.402       .  A
C417        C422   1.411       .  A
C418        C419   1.399       .  A
C418        H427   1.084       .  S
C419        C420   1.415       .  A
C419        S423   1.805       .  S
C420        C421   1.405       .  A
C421        C422   1.397       .  A
C421        H428   1.084       .  S
C422        S424   1.804       .  S
S423        H426   1.406       .  S
S424        H425   1.406       .  S
C429        C430   1.401       .  A
C429        C434   1.410       .  A
C430        C431   1.397       .  A
C430        H439   1.084       .  S
C431        C432   1.416       .  A
C431        S435   1.805       .  S
C432        C433   1.404       .  A
C433        C434   1.398       .  A
C433        H440   1.084       .  S
C434        S436   1.804       .  S
S435        H438   1.406       .  S
S436        H437   1.406       .  S
C441        C442   1.400       .  A
C441        C446   1.411       .  A
C442        C443   1.400       .  A
C442        H451   1.084       .  S
C443        C444   1.418       .  A
C443        S447   1.802       .  S
C444        C445   1.405       .  A
C445        C446   1.394       .  A
C445        H452   1.084       .  S
C446        S448   1.808       .  S
S447        H450   1.407       .  S
S448        H449   1.401       .  S
C453        C454   1.404       .  A
C453        C458   1.415       .  A
C454        C455   1.400       .  A
C454        H463   1.083       .  S
C455        C456   1.409       .  A
C455        S459   1.809       .  S
C456        C457   1.401       .  A
C457        C458   1.402       .  A
C457        H464   1.084       .  S
C458        S460   1.802       .  S
S459        H462   1.407       .  S
S460        H461   1.407       .  S
C465        C466   1.403       .  A
C465        C470   1.415       .  A
C466        C467   1.399       .  A
C466        H475   1.084       .  S
C467        C468   1.411       .  A
C467        S471   1.805       .  S
C468        C469   1.401       .  A
C469        C470   1.398       .  A
C469        H476   1.084       .  S
C470        S472   1.806       .  S
S471        H474   1.405       .  S
S472        H473   1.405       .  S
C477        C478   1.404       .  A
C477        C482   1.413       .  A
C478        C479   1.394       .  A
C478        H487   1.084       .  S
C479        C480   1.409       .  A
C479        S483   1.805       .  S
C480        C481   1.401       .  A
C481        C482   1.397       .  A
C481        H488   1.084       .  S
C482        S484   1.804       .  S
S483        H486   1.406       .  S
S484        H485   1.406       .  S
C489        C490   1.402       .  A
C489       C1078   1.414       .  A
C490        C491   1.399       .  A
C490        H499   1.084       .  S
C491        C492   1.414       .  A
C491        S495   1.804       .  S
C492       C1077   1.403       .  A
C493        C494   1.400       .  A
C493       C1076   1.404   1_554  A
C493        H500   1.084       .  S
C494       C1073   1.413   1_554  A
C494        S496   1.805       .  S
S495        H498   1.407       .  S
S496        H497   1.406       .  S
C501        C506   1.414       .  A
C501       C1086   1.404       .  A
C502        C503   1.396       .  A
C502       C1085   1.403   1_554  A
C502        H511   1.084       .  S
C503       C1088   1.413   1_554  A
C503        S507   1.804       .  S
C504        C505   1.404       .  A
C504       C1087   1.413       .  A
C505        C506   1.400       .  A
C505        H512   1.084       .  S
C506        S508   1.804       .  S
S507        H510   1.407       .  S
S508        H509   1.406       .  S
C513        C518   1.414       .  A
C513       C1098   1.404       .  A
C514        C515   1.396       .  A
C514       C1097   1.404   1_554  A
C514        H523   1.084       .  S
C515       C1100   1.412   1_554  A
C515        S519   1.804       .  S
C516        C517   1.404       .  A
C516       C1099   1.413       .  A
C517        C518   1.400       .  A
C517        H524   1.084       .  S
C518        S520   1.805       .  S
S519        H522   1.407       .  S
S520        H521   1.406       .  S
C525        C526   1.403       .  A
C525       C1114   1.415       .  A
C526        C527   1.399       .  A
C526        H535   1.084       .  S
C527        C528   1.415       .  A
C527        S531   1.804       .  S
C528       C1113   1.403       .  A
C529        C530   1.399       .  A
C529       C1112   1.403   1_554  A
C529        H536   1.084       .  S
C530       C1109   1.415   1_554  A
C530        S532   1.805       .  S
S531        H534   1.407       .  S
S532        H533   1.406       .  S
C537        C538   1.407       .  A
C537       C1126   1.417       .  A
C538        C539   1.396       .  A
C538        H547   1.084       .  S
C539        C540   1.408       .  A
C539        S543   1.804       .  S
C540       C1125   1.401       .  A
C540        C608   1.480       .  S
C541        C542   1.399       .  A
C541       C1124   1.401   1_554  A
C541        H548   1.084       .  S
C542       C1121   1.417   1_554  A
C542        S544   1.802       .  S
S543        H546   1.405       .  S
S544        H545   1.408       .  S
C549        C554   1.411       .  A
C549       C1134   1.401       .  A
C549        C607   1.485       .  S
C550        C551   1.399       .  A
C550       C1133   1.400   1_554  A
C550        H559   1.084       .  S
C551       C1136   1.420   1_554  A
C551        S555   1.803       .  S
C552        C553   1.407       .  A
C552       C1135   1.419       .  A
C553        C554   1.398       .  A
C553        H560   1.084       .  S
C554        S556   1.805       .  S
S555        H558   1.408       .  S
S556        H557   1.405       .  S
C561        C562   1.401       .  A
C561       C1150   1.410       .  A
C562        C563   1.401       .  A
C562        H571   1.083       .  S
C563        C564   1.418       .  A
C563        S567   1.810       .  S
C564       C1149   1.408       .  A
C565        C566   1.397       .  A
C565       C1148   1.407   1_554  A
C565        H572   1.084       .  S
C566       C1145   1.410   1_554  A
C566        S568   1.804       .  S
S567        H570   1.407       .  S
S568        H569   1.405       .  S
C573        C578   1.411       .  A
C573       C1158   1.401       .  A
C574        C575   1.401       .  A
C574       C1157   1.401   1_554  A
C574        H583   1.084       .  S
C575       C1160   1.419   1_554  A
C575        S579   1.803       .  S
C576        C577   1.406       .  A
C576       C1159   1.418       .  A
C577        C578   1.398       .  A
C577        H584   1.084       .  S
C578        S580   1.804       .  S
S579        H582   1.407       .  S
S580        H581   1.406       .  S
N585        C590   1.352       .  A
N585        C589   1.353       .  A
N585        H617   1.038       .  S
N586        C594   1.349       .  A
N587        C592   1.353       .  A
N587        C591   1.352       .  A
N587        H618   1.037       .  S
N588        C595   1.350       .  A
C589        C597   1.387   1_556  A
C589        C605   1.414       .  A
C590        C606   1.414       .  A
C590        C598   1.387   1_556  A
C591        C599   1.388       .  A
C591        C608   1.415       .  A
C592        C607   1.414       .  A
C592        C600   1.387       .  A
C593        C605   1.412       .  A
C594        C608   1.410       .  A
C594        C602   1.387       .  A
C595        C603   1.386       .  A
C595        C606   1.410       .  A
C596        C607   1.412       .  A
C597        C598   1.374       .  A
C597        H609   1.082       .  S
C598        H610   1.082       .  S
C599        C600   1.375       .  A
C599        H611   1.082       .  S
C600        H612   1.082       .  S
C601        C602   1.373       .  A
C601        H613   1.082       .  S
C602        H614   1.082       .  S
C603        C604   1.371       .  A
C603        H615   1.082       .  S
C604        H616   1.082       .  S
C605       C1157   1.488       .  S
C606       C1145   1.483       .  S
N619        C624   1.352   1_455  A
N619        C623   1.353       .  A
N619        H651   1.040       .  S
N620        C627   1.349   1_565  A
N620        C628   1.348       .  A
N621        C626   1.351       .  A
N621        C625   1.351   1_655  A
N621        H652   1.041   1_655  S
N622        C629   1.350   1_565  A
N622        C630   1.351       .  A
C623        C631   1.387       .  A
C623        C639   1.414       .  A
C624        C640   1.414       .  A
C624        C632   1.387       .  A
C625        C633   1.387       .  A
C625        C642   1.412       .  A
C626        C641   1.413       .  A
C626        C634   1.387       .  A
C627        C639   1.409       .  A
C627        C635   1.386       .  A
C628        C642   1.409       .  A
C628        C636   1.386       .  A
C629        C637   1.386   1_556  A
C629        C640   1.412       .  A
C630        C638   1.386   1_556  A
C630        C641   1.412       .  A
C631        C632   1.377   1_455  A
C631        H643   1.082       .  S
C632        H644   1.082       .  S
C633        C634   1.376   1_455  A
C633        H645   1.082       .  S
C634        H646   1.082       .  S
C635        C636   1.376   1_545  A
C635        H647   1.082   1_556  S
C636        H648   1.082   1_556  S
C637        C638   1.377   1_545  A
C637        H649   1.082       .  S
C638        H650   1.082       .  S
C639       C1085   1.489       .  S
C640       C1073   1.487       .  S
C641       C1109   1.490       .  S
C642       C1097   1.485       .  S
O653        C669   1.273       .  A
C654       C1052   1.469       .  S
C654        O670   1.273       .  A
C654        O667   1.273       .  A
O655        C668   1.274       .  A
O655       Cd662   2.070       .  S
O656        C674   1.275       .  A
O656       Cd665   2.058       .  S
O657       Cd661   2.063       .  S
O658        C669   1.274       .  A
O658       Cd661   2.068       .  S
Zn659       O670   2.021       .  S
Zn659       O672   2.014       .  S
Zn659       O664   1.937       .  S
O660        C671   1.276       .  A
O660       Cd665   2.077       .  S
Cd661       O663   2.062       .  S
Cd662       O675   2.059       .  S
Cd662       O664   2.005       .  S
O663        C673   1.274       .  A
O664       Cd665   1.996       .  S
Cd665       O667   2.071       .  S
O666        C673   1.273       .  A
C668       C1088   1.475       .  S
C668        O672   1.274       .  A
C669       C1064   1.466       .  S
C671       C1136   1.485       .  S
C673       C1037   1.472       .  S
C674       C1028   1.472       .  S
C674        O675   1.274       .  A
O676        C692   1.275       .  A
O676       Zn682   2.030       .  S
C677       C1001   1.470       .  S
C677        O693   1.273       .  A
C677        O690   1.275       .  A
O678        C691   1.275       .  A
O678       Cd685   2.068       .  S
O679        C697   1.275       .  A
O679       Cd688   2.067       .  S
O680        C694   1.274       .  A
O680       Cd684   2.063       .  S
O681        C692   1.271       .  A
O681       Cd684   2.061       .  S
Zn682       O695   2.027       .  S
Zn682       O687   1.942       .  S
O683       Cd688   2.067       .  S
Cd684       O686   2.046       .  S
Cd684       O687   1.993       .  S
Cd685       O689   2.078       .  S
Cd685       O687   2.008       .  S
O686        C696   1.272       .  A
Cd688       O690   2.074       .  S
O689        C696   1.275       .  A
C691       C1076   1.476       .  S
C691        O695   1.276       .  A
C692       C1013   1.470       .  S
C694       C1121   1.484       .  S
C696        C992   1.474       .  S
C697        C977   1.473       .  S
C697        O698   1.274       .  A
O699        C715   1.271       .  A
C700        C953   1.459       .  S
C700        O716   1.272       .  A
C700        O713   1.272       .  A
O701        C714   1.272       .  A
O701       Cd708   2.061       .  S
O702        C720   1.276       .  A
O702       Cd711   2.066       .  S
O703       Cd707   2.075       .  S
O704        C715   1.273       .  A
O704       Cd707   2.064       .  S
Zn705       O716   1.999       .  S
Zn705       O718   2.029       .  S
Zn705       O710   1.938       .  S
O706        C717   1.277       .  A
O706       Cd711   2.081       .  S
Cd707       O709   2.063       .  S
Cd708       O721   2.062       .  S
Cd708       O710   1.998       .  S
O709        C719   1.275       .  A
O710       Cd711   1.992       .  S
Cd711       O713   2.055       .  S
O712        C719   1.273       .  A
C714       C1112   1.478       .  S
C714        O718   1.275       .  A
C715        C965   1.461       .  S
C717       C1160   1.487       .  S
C719        C941   1.478       .  S
C720        C932   1.491       .  S
C720        O721   1.272       .  A
O722        C738   1.273       .  A
O722       Zn728   2.009       .  S
C723        C908   1.466       .  S
C723        O739   1.272       .  A
C723        O736   1.274       .  A
O724        C737   1.273       .  A
O724       Cd731   2.060       .  S
O725        C743   1.275       .  A
O725       Cd734   2.062       .  S
O726        C740   1.273       .  A
O726       Cd730   2.061       .  S
O727        C738   1.272       .  A
O727       Cd730   2.060       .  S
Zn728       O741   2.014       .  S
Zn728       O733   1.935       .  S
O729       Cd734   2.072       .  S
Cd730       O732   2.054       .  S
Cd730       O733   1.989       .  S
Cd731       O735   2.070       .  S
Cd731       O733   2.002       .  S
O732        C742   1.274       .  A
Cd734       O736   2.067       .  S
O735        C742   1.273       .  A
C737       C1100   1.471       .  S
C737        O741   1.274       .  A
C738        C917   1.467       .  S
C740       C1148   1.481       .  S
C742        C893   1.489       .  S
C743        C881   1.495       .  S
C743        O744   1.273       .  A
N745        C750   1.354       .  A
N745        C749   1.354   1_655  A
N745        H777   1.042       .  S
N746        C753   1.349       .  A
N746        C754   1.350       .  A
N747        C752   1.353       .  A
N747        C751   1.353   1_655  A
N747        H778   1.042       .  S
N748        C755   1.349       .  A
N748        C756   1.350       .  A
C749        C757   1.387       .  A
C749        C765   1.415       .  A
C750        C766   1.416       .  A
C750        C758   1.387       .  A
C751        C759   1.386       .  A
C751        C768   1.412       .  A
C752        C767   1.413       .  A
C752        C760   1.387       .  A
C753        C765   1.410       .  A
C753        C761   1.387       .  A
C754        C768   1.409       .  A
C754        C762   1.385       .  A
C755        C763   1.386       .  A
C755        C766   1.410       .  A
C756        C764   1.386       .  A
C756        C767   1.410       .  A
C757        C758   1.375   1_455  A
C757        H769   1.082       .  S
C758        H770   1.082       .  S
C759        C760   1.372   1_455  A
C759        H771   1.082       .  S
C760        H772   1.082       .  S
C761        C762   1.374       .  A
C761        H773   1.082       .  S
C762        H774   1.082       .  S
C763        C764   1.375       .  A
C763        H775   1.082       .  S
C764        H776   1.082       .  S
C765       C1061   1.488       .  S
C766       C1004   1.490       .  S
C767       C1016   1.488       .  S
C768       C1049   1.486       .  S
N779        C784   1.350       .  A
N779        C783   1.351   1_655  A
N779        H811   1.042       .  S
N780        C787   1.348       .  A
N780        C788   1.348       .  A
N781        C786   1.352       .  A
N781        C785   1.352   1_655  A
N781        H812   1.042       .  S
N782        C789   1.348       .  A
N782        C790   1.347       .  A
C783        C791   1.388       .  A
C783        C799   1.412       .  A
C784        C800   1.409       .  A
C784        C792   1.386       .  A
C785        C793   1.388       .  A
C785        C802   1.415       .  A
C786        C801   1.412       .  A
C786        C794   1.386       .  A
C787        C799   1.409       .  A
C787        C795   1.386       .  A
C788        C802   1.409       .  A
C788        C796   1.386       .  A
C789        C797   1.386       .  A
C789        C800   1.406       .  A
C790        C798   1.386       .  A
C790        C801   1.407       .  A
C791        C792   1.374   1_455  A
C791        H803   1.082       .  S
C792        H804   1.082       .  S
C793        C794   1.376   1_455  A
C793        H805   1.082       .  S
C794        H806   1.082       .  S
C795        C796   1.376       .  A
C795        H807   1.082       .  S
C796        H808   1.082       .  S
C797        C798   1.374       .  A
C797        H809   1.082       .  S
C798        H810   1.082       .  S
C799        C920   1.486       .  S
C800        C956   1.480       .  S
C801        C968   1.484       .  S
C802        C905   1.487       .  S
N813        C818   1.353       .  A
N813        C817   1.352       .  A
N813        H845   1.042       .  S
N814        C821   1.348       .  A
N814        C822   1.349       .  A
N815        C820   1.352       .  A
N815        C819   1.353       .  A
N815        H846   1.041       .  S
N816        C823   1.349       .  A
N816        C824   1.349       .  A
C817        C825   1.388       .  A
C817        C833   1.414       .  A
C818        C834   1.410       .  A
C818        C826   1.386       .  A
C819        C827   1.388       .  A
C819        C836   1.413       .  A
C820        C835   1.413       .  A
C820        C828   1.387       .  A
C821        C833   1.409       .  A
C821        C829   1.387       .  A
C822        C836   1.408       .  A
C822        C830   1.386       .  A
C823        C831   1.386       .  A
C823        C834   1.408       .  A
C824        C832   1.386       .  A
C824        C835   1.409       .  A
C825        C826   1.372       .  A
C825        H837   1.082       .  S
C826        H838   1.082       .  S
C827        C828   1.374       .  A
C827        H839   1.082       .  S
C828        H840   1.082       .  S
C829        C830   1.375       .  A
C829        H841   1.082       .  S
C830        H842   1.082       .  S
C831        C832   1.374       .  A
C831        H843   1.082       .  S
C832        H844   1.082       .  S
C833        C944   1.485       .  S
C834        C884   1.485       .  S
C835        C896   1.484       .  S
C836        C929   1.483       .  S
N847        C852   1.348       .  A
N847        C851   1.349       .  A
N847        H879   1.040       .  S
N848        C855   1.350       .  A
N848        C856   1.349       .  A
N849        C854   1.348       .  A
N849        C853   1.349       .  A
N849        H880   1.039       .  S
N850        C857   1.351       .  A
N850        C858   1.351       .  A
C851        C859   1.386       .  A
C851        C867   1.409       .  A
C852        C868   1.411       .  A
C852        C860   1.387       .  A
C853        C861   1.387       .  A
C853        C870   1.409       .  A
C854        C869   1.410       .  A
C854        C862   1.387       .  A
C855        C867   1.410       .  A
C855        C863   1.386       .  A
C856        C870   1.409       .  A
C856        C864   1.386       .  A
C857        C865   1.387       .  A
C857        C868   1.412       .  A
C858        C866   1.386       .  A
C858        C869   1.411       .  A
C859        C860   1.378       .  A
C859        H871   1.082       .  S
C860        H872   1.082       .  S
C861        C862   1.377       .  A
C861        H873   1.082       .  S
C862        H874   1.082       .  S
C863        C864   1.371       .  A
C863        H875   1.082       .  S
C864        H876   1.082       .  S
C865        C866   1.371       .  A
C865        H877   1.082       .  S
C866        H878   1.082       .  S
C867       C1040   1.479       .  S
C868        C980   1.482       .  S
C869        C989   1.480       .  S
C870       C1025   1.475       .  S
C881        C882   1.410       .  A
C881        C886   1.423       .  A
C882        C883   1.398       .  A
C882        H891   1.082       .  S
C883        C884   1.406       .  A
C883        S887   1.808       .  S
C884        C885   1.400       .  A
C885        C886   1.402       .  A
C885        H892   1.084       .  S
C886        S888   1.800       .  S
S887        H890   1.406       .  S
S888        H889   1.407       .  S
C893        C894   1.409       .  A
C893        C898   1.421       .  A
C894        C895   1.398       .  A
C894        H903   1.082       .  S
C895        C896   1.408       .  A
C895        S899   1.808       .  S
C896        C897   1.400       .  A
C897        C898   1.399       .  A
C897        H904   1.084       .  S
C898        S900   1.801       .  S
S899        H902   1.407       .  S
S900        H901   1.408       .  S
C905        C906   1.405       .  A
C905        C910   1.413       .  A
C906        C907   1.395       .  A
C906        H915   1.084       .  S
C907        C908   1.410       .  A
C907        S911   1.805       .  S
C908        C909   1.402       .  A
C909        C910   1.399       .  A
C909        H916   1.084       .  S
C910        S912   1.804       .  S
S911        H914   1.406       .  S
S912        H913   1.406       .  S
C917        C918   1.401       .  A
C917        C922   1.411       .  A
C918        C919   1.397       .  A
C918        H927   1.084       .  S
C919        C920   1.416       .  A
C919        S923   1.805       .  S
C920        C921   1.404       .  A
C921        C922   1.397       .  A
C921        H928   1.084       .  S
C922        S924   1.804       .  S
S923        H926   1.406       .  S
S924        H925   1.406       .  S
C929        C930   1.399       .  A
C929        C934   1.407       .  A
C930        C931   1.400       .  A
C930        H939   1.084       .  S
C931        C932   1.422       .  A
C931        S935   1.801       .  S
C932        C933   1.409       .  A
C933        C934   1.398       .  A
C933        H940   1.082       .  S
C934        S936   1.809       .  S
S935        H938   1.408       .  S
S936        H937   1.406       .  S
C941        C942   1.406       .  A
C941        C946   1.415       .  A
C942        C943   1.398       .  A
C942        H951   1.084       .  S
C943        C944   1.412       .  A
C943        S947   1.804       .  S
C944        C945   1.402       .  A
C945        C946   1.394       .  A
C945        H952   1.084       .  S
C946        S948   1.804       .  S
S947        H950   1.406       .  S
S948        H949   1.408       .  S
C953        C954   1.399       .  A
C953        C958   1.410       .  A
C954        C955   1.393       .  A
C954        H963   1.085       .  S
C955        C956   1.413       .  A
C955        S959   1.804       .  S
C956        C957   1.403       .  A
C957        C958   1.397       .  A
C957        H964   1.084       .  S
C958        S960   1.804       .  S
S959        H962   1.405       .  S
S960        H961   1.406       .  S
C965        C966   1.398       .  A
C965        C970   1.410       .  A
C966        C967   1.394       .  A
C966        H975   1.085       .  S
C967        C968   1.415       .  A
C967        S971   1.803       .  S
C968        C969   1.403       .  A
C969        C970   1.398       .  A
C969        H976   1.084       .  S
C970        S972   1.804       .  S
S971        H974   1.406       .  S
S972        H973   1.406       .  S
C977        C978   1.405       .  A
C977        C982   1.413       .  A
C978        C979   1.401       .  A
C978        H987   1.084       .  S
C979        C980   1.411       .  A
C979        S983   1.803       .  S
C980        C981   1.401       .  A
C981        C982   1.394       .  A
C981        H988   1.085       .  S
C982        S984   1.804       .  S
S983        H986   1.406       .  S
S984        H985   1.407       .  S
C989        C990   1.402       .  A
C989        C994   1.411       .  A
C990        C991   1.400       .  A
C990        H999   1.084       .  S
C991        C992   1.414       .  A
C991        S995   1.802       .  S
C992        C993   1.404       .  A
C993        C994   1.393       .  A
C993       H1000   1.084       .  S
C994        S996   1.806       .  S
S995        H998   1.407       .  S
S996        H997   1.405       .  S
C1001      C1002   1.404       .  A
C1001      C1006   1.410       .  A
C1002      C1003   1.401       .  A
C1002      H1011   1.084       .  S
C1003      C1004   1.413       .  A
C1003      S1007   1.804       .  S
C1004      C1005   1.405       .  A
C1005      C1006   1.397       .  A
C1005      H1012   1.084       .  S
C1006      S1008   1.804       .  S
S1007      H1010   1.406       .  S
S1008      H1009   1.406       .  S
C1013      C1014   1.401       .  A
C1013      C1018   1.411       .  A
C1014      C1015   1.398       .  A
C1014      H1023   1.084       .  S
C1015      C1016   1.415       .  A
C1015      S1019   1.806       .  S
C1016      C1017   1.404       .  A
C1017      C1018   1.400       .  A
C1017      H1024   1.084       .  S
C1018      S1020   1.804       .  S
S1019      H1022   1.406       .  S
S1020      H1021   1.406       .  S
C1025      C1026   1.400       .  A
C1025      C1030   1.411       .  A
C1026      C1027   1.398       .  A
C1026      H1035   1.084       .  S
C1027      C1028   1.415       .  A
C1027      S1031   1.803       .  S
C1028      C1029   1.403       .  A
C1029      C1030   1.394       .  A
C1029      H1036   1.084       .  S
C1030      S1032   1.806       .  S
S1031      H1034   1.407       .  S
S1032      H1033   1.404       .  S
C1037      C1038   1.403       .  A
C1037      C1042   1.415       .  A
C1038      C1039   1.398       .  A
C1038      H1047   1.083       .  S
C1039      C1040   1.409       .  A
C1039      S1043   1.809       .  S
C1040      C1041   1.400       .  A
C1041      C1042   1.399       .  A
C1041      H1048   1.084       .  S
C1042      S1044   1.803       .  S
S1043      H1046   1.406       .  S
S1044      H1045   1.407       .  S
C1049      C1050   1.402       .  A
C1049      C1054   1.414       .  A
C1050      C1051   1.400       .  A
C1050      H1059   1.084       .  S
C1051      C1052   1.411       .  A
C1051      S1055   1.804       .  S
C1052      C1053   1.401       .  A
C1053      C1054   1.399       .  A
C1053      H1060   1.084       .  S
C1054      S1056   1.805       .  S
S1055      H1058   1.405       .  S
S1056      H1057   1.405       .  S
C1061      C1062   1.404       .  A
C1061      C1066   1.413       .  A
C1062      C1063   1.396       .  A
C1062      H1071   1.084       .  S
C1063      C1064   1.410       .  A
C1063      S1067   1.805       .  S
C1064      C1065   1.403       .  A
C1065      C1066   1.401       .  A
C1065      H1072   1.084       .  S
C1066      S1068   1.803       .  S
S1067      H1070   1.405       .  S
S1068      H1069   1.406       .  S
C1073      C1074   1.402       .  A
C1074      C1075   1.399       .  A
C1074      H1083   1.084       .  S
C1075      C1076   1.414       .  A
C1075      S1079   1.803       .  S
C1077      C1078   1.399       .  A
C1077      H1084   1.084       .  S
C1078      S1080   1.805       .  S
S1079      H1082   1.407       .  S
S1080      H1081   1.406       .  S
C1085      C1090   1.416       .  A
C1086      C1087   1.397       .  A
C1086      H1095   1.084       .  S
C1087      S1091   1.804       .  S
C1088      C1089   1.404       .  A
C1089      C1090   1.401       .  A
C1089      H1096   1.084       .  S
C1090      S1092   1.805       .  S
S1091      H1094   1.407       .  S
S1092      H1093   1.405       .  S
C1097      C1102   1.414       .  A
C1098      C1099   1.396       .  A
C1098      H1107   1.084       .  S
C1099      S1103   1.804       .  S
C1100      C1101   1.403       .  A
C1101      C1102   1.398       .  A
C1101      H1108   1.084       .  S
C1102      S1104   1.805       .  S
S1103      H1106   1.407       .  S
S1104      H1105   1.405       .  S
C1109      C1110   1.403       .  A
C1110      C1111   1.400       .  A
C1110      H1119   1.084       .  S
C1111      C1112   1.415       .  A
C1111      S1115   1.804       .  S
C1113      C1114   1.399       .  A
C1113      H1120   1.084       .  S
C1114      S1116   1.805       .  S
S1115      H1118   1.407       .  S
S1116      H1117   1.406       .  S
C1121      C1122   1.407       .  A
C1122      C1123   1.398       .  A
C1122      H1131   1.084       .  S
C1123      C1124   1.410       .  A
C1123      S1127   1.805       .  S
C1125      C1126   1.398       .  A
C1125      H1132   1.084       .  S
C1126      S1128   1.803       .  S
S1127      H1130   1.405       .  S
S1128      H1129   1.407       .  S
C1133      C1138   1.410       .  A
C1134      C1135   1.399       .  A
C1134      H1143   1.084       .  S
C1135      S1139   1.803       .  S
C1136      C1137   1.406       .  A
C1137      C1138   1.398       .  A
C1137      H1144   1.084       .  S
C1138      S1140   1.805       .  S
S1139      H1142   1.407       .  S
S1140      H1141   1.405       .  S
C1145      C1146   1.401       .  A
C1146      C1147   1.400       .  A
C1146      H1155   1.083       .  S
C1147      C1148   1.417       .  A
C1147      S1151   1.810       .  S
C1149      C1150   1.400       .  A
C1149      H1156   1.084       .  S
C1150      S1152   1.804       .  S
S1151      H1154   1.407       .  S
S1152      H1153   1.405       .  S
C1157      C1162   1.411       .  A
C1158      C1159   1.400       .  A
C1158      H1167   1.084       .  S
C1159      S1163   1.803       .  S
C1160      C1161   1.406       .  A
C1161      C1162   1.400       .  A
C1161      H1168   1.084       .  S
C1162      S1164   1.804       .  S
S1163      H1166   1.407       .  S
S1164      H1165   1.406       .  S
