geometry optimzed in LAMMPS
_audit_creation_date              2020-11-30 
_audit_creation_method            'lammps2cif' 
_symmetry_space_group_name_H-M    'P1' 
_symmetry_Int_Tables_number       1 
_symmetry_cell_setting            triclinic 
loop_ 
_symmetry_equiv_pos_as_xyz 
  x,y,z 
_cell_length_a                    43.09809556 
_cell_length_b                    43.52644595106519 
_cell_length_c                    42.92366624278034 
_cell_angle_alpha                 90.1829554535814 
_cell_angle_beta                  90.21626598518716 
_cell_angle_gamma                 120.808044398348 
loop_ 
_atom_site_label 
_atom_site_type_symbol 
_atom_site_fract_x 
_atom_site_fract_y 
_atom_site_fract_z 
_atom_site_charge 
C1          C  0.57134758  0.33973352  0.24090351    -0.00700
C2          C  0.31570320  0.60472895  0.25300508    -0.00700
C3          C  0.72688416  0.42765065  0.24771399    -0.00700
C4          C  0.65553515  0.27352129  0.25540078    -0.00700
C5          C  0.25060877  0.69327201  0.25078018    -0.00700
C6          C  0.40628731  0.76202564  0.25165160    -0.00700
C7          C  0.65134182  0.42780703  0.74963058    -0.00700
C8          C  0.56481800  0.27166374  0.74808267    -0.00700
C9          C  0.24588792  0.60515993  0.75115925    -0.00700
C10         C  0.40395187  0.69422845  0.74846881    -0.00700
C11         C  0.71994993  0.34033258  0.74984005    -0.00700
In12       In  0.64298536  0.15565604  0.41837852     1.36900
C13         C  0.58968694  0.13895679  0.45780027     0.79400
O14         O  0.61230848  0.10430054  0.39168899    -0.59100
O15         O  0.65575955  0.11114717  0.41966974    -0.50000
C16         C  0.64898922  0.18982300  0.36533268     0.72000
O17         O  0.61963130  0.17141710  0.37946255    -0.44800
C18         C  0.69492435  0.20427573  0.45569107     0.76800
O19         O  0.59287137  0.15498268  0.43258902    -0.56700
O20         O  0.66717445  0.20512135  0.44781174    -0.46800
O21         O  0.61302404  0.13021694  0.46231303    -0.53100
C22         C  0.62950444  0.09044089  0.40233215     0.86900
O23         O  0.67574705  0.19029405  0.37806097    -0.55000
O24         O  0.69739337  0.17946697  0.44271187    -0.58300
In25       In  0.84219715  0.35110332  0.58897544     1.36900
C26         C  0.85622102  0.40087188  0.54703237     0.79400
O27         O  0.89718965  0.38705169  0.60874255    -0.59100
O28         O  0.88674853  0.33744217  0.59064640    -0.50000
C29         C  0.80842986  0.34491145  0.64309579     0.72000
O30         O  0.82605784  0.37377438  0.62844051    -0.44800
C31         C  0.79300965  0.30031873  0.55147874     0.76800
O32         O  0.84377842  0.40090886  0.57357129    -0.56700
O33         O  0.81901823  0.29837640  0.56308185    -0.46800
O34         O  0.86294964  0.37627063  0.54259489    -0.53100
C35         C  0.90969094  0.36729698  0.60236157     0.86900
O36         O  0.80867730  0.31876251  0.63044746    -0.55000
O37         O  0.79101579  0.32661594  0.56122086    -0.58300
In38       In  0.84448769  0.53315610  0.41327916     1.36900
C39         C  0.85557866  0.49316214  0.45253759     0.79400
O40         O  0.89712959  0.54953874  0.39105692    -0.59100
O41         O  0.89248420  0.58979737  0.41451388    -0.50000
C42         C  0.81063494  0.50953990  0.35851546     0.72000
O43         O  0.80834784  0.53274065  0.37444818    -0.44800
C44         C  0.80178053  0.54061070  0.45325494     0.76800
O45         O  0.83550972  0.48014285  0.42880974    -0.56700
O46         O  0.82626711  0.56694861  0.43836902    -0.46800
O47         O  0.87072576  0.52659923  0.45534041    -0.53100
C48         C  0.91280903  0.58144520  0.40036930     0.86900
O49         O  0.83050964  0.49930665  0.37035776    -0.55000
O50         O  0.79744998  0.51072320  0.44534328    -0.58300
In51       In  0.66166951  0.54572988  0.58619698     1.36900
C52         C  0.61153923  0.50914147  0.54291542     0.79400
O53         O  0.62208893  0.56043909  0.60191262    -0.59100
O54         O  0.67504529  0.60353681  0.59409084    -0.50000
C55         C  0.66211387  0.51484037  0.64000822     0.72000
O56         O  0.63808813  0.50051300  0.61927912    -0.44800
C57         C  0.71530296  0.55007016  0.55189613     0.76800
O58         O  0.61046794  0.49795143  0.57012553    -0.56700
O59         O  0.71219932  0.57695577  0.55725957    -0.46800
O60         O  0.63839032  0.53976499  0.53782028    -0.53100
C61         C  0.64284442  0.59376145  0.60126056     0.86900
O62         O  0.68728714  0.54613881  0.63332804    -0.55000
O63         O  0.69308661  0.52241255  0.56646427    -0.58300
In64       In  0.45367667  0.15682245  0.58363950     1.36900
C65         C  0.49175185  0.13990537  0.54646016     0.79400
O66         O  0.43319659  0.10533551  0.60881491    -0.59100
O67         O  0.39449563  0.11161326  0.58388640    -0.50000
C68         C  0.48098362  0.18966272  0.63814338     0.72000
O69         O  0.49378594  0.17449960  0.62223318    -0.44800
C70         C  0.45367216  0.20543782  0.54491060     0.76800
O71         O  0.50452759  0.15822512  0.57091542    -0.56700
O72         O  0.42475598  0.17797428  0.55358006    -0.46800
O73         O  0.45894072  0.12927681  0.54147393    -0.53100
C74         C  0.40089036  0.09117317  0.59996760     0.86900
O75         O  0.45322520  0.18804189  0.62625005    -0.55000
O76         O  0.48157198  0.20862398  0.55759498    -0.58300
In77       In  0.47525875  0.35932054  0.41080288     1.36900
C78         C  0.51264232  0.41378260  0.44961483     0.79400
O79         O  0.45683213  0.39410155  0.38855634    -0.59100
O80         O  0.41715571  0.34724753  0.41084429    -0.50000
C81         C  0.50512847  0.35170891  0.35845348     0.72000
O82         O  0.52334702  0.37043164  0.38136410    -0.44800
C83         C  0.46659324  0.30625931  0.44894912     0.76800
O84         O  0.52302380  0.41378569  0.42216144    -0.56700
O85         O  0.44123220  0.30332583  0.43184986    -0.46800
O86         O  0.48225676  0.38713073  0.45608957    -0.53100
C87         C  0.42430172  0.37557715  0.39681230     0.86900
O88         O  0.47141719  0.33602209  0.36260339    -0.55000
O89         O  0.49607034  0.33486046  0.44465849    -0.58300
In90       In  0.50822818  0.87107104  0.42089820     1.36900
C91         C  0.53126740  0.83673023  0.45707634     0.79400
O92         O  0.48762511  0.89818782  0.45161079    -0.59100
O93         O  0.45556011  0.84204429  0.44719439    -0.50000
C94         C  0.55682556  0.93786190  0.40383446     0.72000
O95         O  0.56531983  0.91910321  0.42002637    -0.44800
C96         C  0.48003822  0.83842142  0.36676326     0.76800
O97         O  0.51863230  0.82619365  0.43002300    -0.56700
O98         O  0.46536925  0.85104061  0.38377381    -0.46800
O99         O  0.53440259  0.86620285  0.46462693    -0.53100
C100        C  0.45948148  0.87002209  0.45981815     0.86900
O101        O  0.52441646  0.92149977  0.39497902    -0.55000
O102        O  0.50906646  0.84214912  0.37761222    -0.58300
In103      In  0.13606792  0.68121280  0.41979221     1.36900
C104        C  0.16215253  0.73652635  0.45937617     0.79400
O105        O  0.16461920  0.66196339  0.45042574    -0.59100
O106        O  0.10833214  0.62783544  0.44310387    -0.50000
C107        C  0.06784484  0.65839948  0.40376403     0.72000
O108        O  0.08787768  0.68819918  0.41688663    -0.44800
C109        C  0.17501706  0.68882672  0.36850220     0.76800
O110        O  0.13790300  0.70529539  0.46629372    -0.56700
O111        O  0.17558798  0.67238418  0.39233539    -0.46800
O112        O  0.17158903  0.74018821  0.43115896    -0.53100
C113        C  0.13649837  0.63263957  0.45667436     0.86900
O114        O  0.08353609  0.64149421  0.39713945    -0.55000
O115        O  0.15529044  0.70231338  0.37127910    -0.58300
In116      In  0.31302704  0.87299450  0.58872176     1.36900
C117        C  0.25608610  0.83720912  0.55116348     0.79400
O118        O  0.33396333  0.84373531  0.56076927    -0.59100
O119        O  0.36414266  0.90025589  0.56085328    -0.50000
C120        C  0.32670609  0.93906029  0.60277305     0.72000
O121        O  0.29962520  0.91719173  0.58690235    -0.44800
C122        C  0.31222180  0.84044674  0.64185796     0.76800
O123        O  0.25578519  0.82889541  0.57940795    -0.56700
O124        O  0.33868466  0.85455326  0.62358957    -0.46800
O125        O  0.28465160  0.86512698  0.54308613    -0.53100
C126        C  0.36106349  0.87164816  0.55055953     0.86900
O127        O  0.34521491  0.92629956  0.61278171    -0.55000
O128        O  0.28561534  0.84301339  0.63306411    -0.58300
In129      In  0.31533779  0.48739815  0.41487366     1.36900
C130        C  0.25952907  0.46051326  0.45419110     0.79400
O131        O  0.33304795  0.53401813  0.44785605    -0.59100
O132        O  0.36872265  0.51504125  0.43992484    -0.50000
C133        C  0.33842707  0.44264833  0.39794587     0.72000
O134        O  0.30826278  0.43159994  0.41083883    -0.44800
C135        C  0.31099562  0.52125591  0.36397111     0.76800
O136        O  0.28961965  0.46388188  0.46076151    -0.56700
O137        O  0.33389414  0.53605522  0.38551053    -0.46800
O138        O  0.25664331  0.46743958  0.42610082    -0.53100
C139        C  0.36297900  0.53690626  0.45434507     0.86900
O140        O  0.35489485  0.47554504  0.39206176    -0.55000
O141        O  0.28899078  0.48838593  0.36854906    -0.58300
In142      In  0.51375444  0.68407524  0.58503997     1.36900
C143        C  0.53412332  0.73881650  0.54563864     0.79400
O144        O  0.49383413  0.63833425  0.55155103    -0.59100
O145        O  0.45834388  0.65681673  0.56264698    -0.50000
C146        C  0.56379195  0.66703725  0.60053747     0.72000
O147        O  0.57205800  0.69582868  0.58689349    -0.44800
C148        C  0.48282368  0.68833517  0.63806982     0.76800
O149        O  0.52677640  0.70808015  0.53736831    -0.56700
O150        O  0.47133235  0.65986765  0.62254189    -0.46800
O151        O  0.53348975  0.74250755  0.57479634    -0.53100
C152        C  0.46366003  0.63556855  0.54661835     0.86900
O153        O  0.53097897  0.64891392  0.60765682    -0.55000
O154        O  0.51054295  0.71481449  0.62658293    -0.58300
In155      In  0.13293023  0.48583830  0.58649895     1.36900
C156        C  0.13525803  0.53293734  0.54598775     0.79400
O157        O  0.17649008  0.47273223  0.57580239    -0.59100
O158        O  0.13632909  0.46085089  0.54180476    -0.50000
C159        C  0.16597733  0.51917068  0.64000348     0.72000
O160        O  0.15342394  0.53158283  0.62047329    -0.44800
C161        C  0.06442253  0.43917045  0.60198220     0.76800
O162        O  0.16294232  0.53783415  0.56054723    -0.56700
O163        O  0.08524294  0.42893280  0.59213695    -0.46800
O164        O  0.10672155  0.50437968  0.55280898    -0.53100
C165        C  0.16533258  0.46194732  0.54838115     0.86900
O166        O  0.16185525  0.48923218  0.63214909    -0.55000
O167        O  0.07954845  0.47240255  0.60592468    -0.58300
C168        C  0.31955834  0.76233541  0.75092525    -0.00700
In169      In  0.66686815  0.17140497  0.08852021     1.36900
C170        C  0.72110161  0.19563236  0.04770660     0.79400
O171        O  0.61025644  0.14806196  0.07016970    -0.59100
O172        O  0.64958945  0.19975714  0.05517468    -0.50000
C173        C  0.64267595  0.10237888  0.10226571     0.72000
O174        O  0.67362850  0.12297040  0.09113994    -0.44800
C175        C  0.67624764  0.21034698  0.14052713     0.76800
O176        O  0.68918318  0.17129235  0.04179102    -0.56700
O177        O  0.66618870  0.21616498  0.11484867    -0.46800
O178        O  0.72643134  0.20552338  0.07595559    -0.53100
C179        C  0.61741139  0.17429628  0.05296662     0.86900
O180        O  0.62492752  0.11762571  0.10738801    -0.55000
O181        O  0.68356011  0.18577557  0.13927793    -0.58300
In182      In  0.83879034  0.34616924  0.91371190     1.36900
C183        C  0.81040956  0.28930251  0.95142085     0.79400
O184        O  0.86612790  0.39933448  0.93870826    -0.59100
O185        O  0.81084091  0.36370170  0.94747458    -0.50000
C186        C  0.90684111  0.36843745  0.89667526     0.72000
O187        O  0.88699041  0.33879471  0.90978503    -0.44800
C188        C  0.80121966  0.34081489  0.86174034     0.76800
O189        O  0.79651958  0.28924831  0.92542416    -0.56700
O190        O  0.80829549  0.36332544  0.88315694    -0.46800
O191        O  0.84004729  0.31757978  0.95690470    -0.53100
C192        C  0.83851948  0.39356506  0.95354644     0.86900
O193        O  0.89082390  0.38500309  0.89021688    -0.55000
O194        O  0.81263607  0.31976571  0.86710235    -0.58300
In195      In  0.83833534  0.54237096  0.08156775     1.36900
C196        C  0.79991503  0.56213963  0.04610187     0.79400
O197        O  0.81041775  0.49094081  0.05397328    -0.59100
O198        O  0.86730029  0.52203958  0.05193392    -0.50000
C199        C  0.90681729  0.59264404  0.09660043     0.72000
O200        O  0.88695757  0.59888276  0.07929747    -0.44800
C201        C  0.80547132  0.50914860  0.13457933     0.76800
O202        O  0.82845092  0.56365765  0.03723744    -0.56700
O203        O  0.81224636  0.49454904  0.11234583    -0.46800
O204        O  0.79276310  0.55370619  0.07439931    -0.53100
C205        C  0.83893724  0.49441303  0.04262677     0.86900
O206        O  0.89075835  0.56163439  0.10784572    -0.55000
O207        O  0.81539568  0.54158201  0.12969614    -0.58300
In208      In  0.64205397  0.53547933  0.91457872     1.36900
C209        C  0.69632124  0.55592322  0.95589247     0.79400
O210        O  0.59039617  0.51082655  0.94156065    -0.59100
O211        O  0.61819701  0.48250776  0.93897145    -0.50000
C212        C  0.62533783  0.58566211  0.90016086     0.72000
O213        O  0.65420825  0.59326706  0.91419073    -0.44800
C214        C  0.64792148  0.50685773  0.86071745     0.76800
O215        O  0.70012284  0.55319447  0.92702213    -0.56700
O216        O  0.61942269  0.49371009  0.87650900    -0.46800
O217        O  0.66560563  0.55050514  0.96303964    -0.53100
C218        C  0.59170387  0.48376430  0.94984690     0.86900
O219        O  0.60679982  0.55331883  0.89229735    -0.55000
O220        O  0.67385100  0.53510015  0.87234723    -0.58300
In221      In  0.46706888  0.16344004  0.91964874     1.36900
C222        C  0.43578994  0.19033681  0.95512326     0.87800
O223        O  0.49353182  0.14026649  0.94838020    -0.59100
O224        O  0.51620042  0.19628972  0.95031933    -0.50000
C225        C  0.42368093  0.09413014  0.90492218     0.72000
O226        O  0.41212388  0.11258575  0.91747819    -0.44800
C227        C  0.49558921  0.19912127  0.86659280     0.76800
O228        O  0.44788577  0.20227190  0.92836854    -0.56700
O229        O  0.51444818  0.19947773  0.88924591    -0.46800
O230        O  0.43731102  0.16317536  0.96234402    -0.53100
C231        C  0.51701351  0.16955046  0.96038269     0.86900
O232        O  0.45677901  0.11190149  0.89814960    -0.55000
O233        O  0.46195133  0.18025004  0.87099677    -0.58300
In234      In  0.44726895  0.33801186  0.08256639     1.36900
C235        C  0.42393449  0.28129697  0.04479496     0.79400
O236        O  0.49968325  0.36379961  0.05651525    -0.59100
O237        O  0.46416721  0.38303728  0.04875191    -0.50000
C238        C  0.40043360  0.35752295  0.10147333     0.72000
O239        O  0.39028058  0.32857386  0.08704316    -0.44800
C240        C  0.48373432  0.33618448  0.13264900     0.76800
O241        O  0.42580682  0.30994810  0.03682767    -0.56700
O242        O  0.49546218  0.36235985  0.11433550    -0.46800
O243        O  0.43083617  0.28033201  0.07326590    -0.53100
C244        C  0.49351948  0.38510436  0.04170184     0.86900
O245        O  0.43345537  0.37418294  0.10848348    -0.55000
O246        O  0.45258049  0.31052433  0.12558056    -0.58300
In247      In  0.13171750  0.68830407  0.08721318     1.36900
C248        C  0.13333451  0.63957224  0.05001024     0.79400
O249        O  0.08015178  0.66101315  0.11589210    -0.59100
O250        O  0.08170645  0.69190913  0.07787760    -0.50000
C251        C  0.16785518  0.69243356  0.13982586     0.72000
O252        O  0.15566685  0.66661582  0.12082979    -0.44800
C253        C  0.16716768  0.74591852  0.05067808     0.76800
O254        O  0.16034708  0.67014114  0.05502039    -0.56700
O255        O  0.13933901  0.71730506  0.04222642    -0.46800
O256        O  0.10578110  0.63326109  0.06527954    -0.53100
C257        C  0.06282059  0.67082058  0.09911824     0.86900
O258        O  0.16160116  0.71676534  0.13195652    -0.55000
O259        O  0.17523046  0.74631933  0.07910496    -0.58300
In260      In  0.32768143  0.87178879  0.92270765     1.36900
C261        C  0.37583985  0.87301082  0.96232049     0.79400
O262        O  0.36737803  0.92435282  0.90097411    -0.59100
O263        O  0.31958572  0.91936192  0.91916186    -0.50000
C264        C  0.32340233  0.83541078  0.87030078     0.72000
O265        O  0.34230223  0.83745024  0.89354210    -0.44800
C266        C  0.27010493  0.84134916  0.96055312     0.76800
O267        O  0.34786576  0.84442311  0.95391612    -0.56700
O268        O  0.26868296  0.83147184  0.93261017    -0.46800
O269        O  0.37981050  0.90064693  0.94921673    -0.53100
C270        C  0.34988681  0.93964245  0.90676279     0.86900
O271        O  0.30607722  0.85133875  0.87416316    -0.55000
O272        O  0.29992020  0.86834045  0.96794846    -0.58300
In273      In  0.52787264  0.87852279  0.08934209     1.36900
C274        C  0.47705809  0.87772147  0.05356250     0.79400
O275        O  0.53706386  0.92990201  0.11064834    -0.59100
O276        O  0.58304102  0.92896898  0.09507756    -0.50000
C277        C  0.49432956  0.83795423  0.13978632     0.72000
O278        O  0.47923208  0.83437475  0.11382266    -0.44800
C279        C  0.55551361  0.85152302  0.04855639     0.76800
O280        O  0.50607863  0.90602288  0.06044539    -0.56700
O281        O  0.54655018  0.87388735  0.04156138    -0.46800
O282        O  0.47359400  0.84999634  0.06606585    -0.53100
C283        C  0.57061597  0.94759133  0.10588323     0.86900
O284        O  0.52743712  0.86199574  0.13995411    -0.55000
O285        O  0.55339750  0.84504184  0.07738783    -0.58300
In286      In  0.51567033  0.69659252  0.91714116     1.36900
C287        C  0.46711133  0.64810773  0.95656483     0.79400
O288        O  0.52477537  0.65561063  0.89403681    -0.59100
O289        O  0.57064333  0.70146271  0.91267965    -0.50000
C290        C  0.48346649  0.70291594  0.86548676     0.72000
O291        O  0.46701549  0.69027118  0.89069464    -0.44800
C292        C  0.54884497  0.75496646  0.95409140     0.76800
O293        O  0.48936474  0.64338889  0.94153774    -0.56700
O294        O  0.53807078  0.75580570  0.92688167    -0.46800
O295        O  0.46867165  0.67713926  0.95034383    -0.53100
C296        C  0.55819774  0.67122213  0.89975402     0.86900
O297        O  0.51670012  0.71338272  0.86699690    -0.55000
O298        O  0.54541474  0.72530933  0.96092531    -0.58300
In299      In  0.32277574  0.49707962  0.08748029     1.36900
C300        C  0.26731105  0.47766435  0.04745990     0.79400
O301        O  0.29119314  0.49925344  0.12883238    -0.59100
O302        O  0.34775398  0.53432338  0.12896546    -0.50000
C303        C  0.33564403  0.44418678  0.10151548     0.72000
O304        O  0.30683401  0.43824983  0.08842441    -0.44800
C305        C  0.37232257  0.54831171  0.05047426     0.76800
O306        O  0.29582675  0.47793017  0.04054268    -0.56700
O307        O  0.34950149  0.55216666  0.06562590    -0.46800
O308        O  0.26613265  0.48534134  0.07568217    -0.53100
C309        C  0.31838339  0.52388562  0.14298579     0.86900
O310        O  0.35647733  0.47650113  0.10863083    -0.55000
O311        O  0.37085215  0.51915899  0.05574102    -0.58300
In312      In  0.13045308  0.49411032  0.91689513     1.36900
C313        C  0.13171221  0.54116706  0.95771905     0.79400
O314        O  0.07696956  0.48064297  0.89650932    -0.59100
O315        O  0.08311693  0.43724358  0.90914074    -0.50000
C316        C  0.16400980  0.52452031  0.86297373     0.72000
O317        O  0.15061340  0.53771435  0.88086489    -0.44800
C318        C  0.16634973  0.47372396  0.95531590     0.76800
O319        O  0.15786209  0.54850141  0.93994958    -0.56700
O320        O  0.17653302  0.48477407  0.92797167    -0.46800
O321        O  0.10478430  0.51028535  0.95366300    -0.53100
C322        C  0.06216288  0.44730312  0.89910326     0.86900
O323        O  0.16025742  0.49537773  0.87265412    -0.55000
O324        O  0.13622206  0.47010844  0.96183968    -0.58300
C325        C  0.24649048  0.47281064  0.99178214     0.25400
C326        C  0.23888633  0.47102441  0.02388313    -0.22700
C327        C  0.20504140  0.46558878  0.03289511     0.20300
C328        C  0.18034143  0.46400221  0.01049545     0.25300
C329        C  0.18912246  0.46837038  0.97850899    -0.22700
C330        C  0.22204089  0.47164227  0.96946772     0.20200
F331        F  0.23134505  0.47505914  0.93895163    -0.12600
F332        F  0.27853943  0.47761744  0.98184014    -0.15000
F333        F  0.14850262  0.45978771  0.02038137    -0.15000
F334        F  0.19610239  0.46268330  0.06348955    -0.12600
C335        C  0.41822631  0.62904161  0.99681777     0.25400
C336        C  0.44231434  0.62234878  0.98019985    -0.22700
C337        C  0.44358665  0.59145008  0.98738305     0.20300
C338        C  0.42163696  0.56806826  0.01070907     0.25300
C339        C  0.39750329  0.57470390  0.02735242    -0.22700
C340        C  0.39621391  0.60560499  0.02017454     0.20200
F341        F  0.37338418  0.61312591  0.03552320    -0.12600
F342        F  0.41572646  0.65822967  0.99042290    -0.15000
F343        F  0.42401010  0.53874139  0.01679434    -0.15000
F344        F  0.46609958  0.58363500  0.97182766    -0.12600
C345        C  0.56628236  0.80207909  0.03220143     0.25400
C346        C  0.56401359  0.83222702  0.02435407    -0.22700
C347        C  0.56449068  0.84048217  0.99248407     0.20300
C348        C  0.56267985  0.81682486  0.96924930     0.25300
C349        C  0.56077221  0.78458384  0.97731022    -0.22700
C350        C  0.56502073  0.77872056  0.00895868     0.20200
F351        F  0.56533844  0.74896172  0.01778764    -0.12600
F352        F  0.56704826  0.79362206  0.06249074    -0.15000
F353        F  0.56074118  0.82461079  0.93895118    -0.15000
F354        F  0.56450648  0.87042531  0.98366850    -0.12600
C355        C  0.39336818  0.84347475  0.00311340     0.25400
C356        C  0.40140001  0.87424480  0.98606448    -0.22700
C357        C  0.43367003  0.90653912  0.99260516     0.20300
C358        C  0.45769382  0.90789368  0.01521941     0.25300
C359        C  0.45015539  0.87690926  0.03163693    -0.22700
C360        C  0.41756062  0.84476350  0.02557010     0.20200
F361        F  0.40903612  0.81438611  0.04122186    -0.12600
F362        F  0.36199865  0.81205406  0.99826109    -0.15000
F363        F  0.48869183  0.93953058  0.02053119    -0.15000
F364        F  0.44236135  0.93692386  0.97690371    -0.12600
C365        C  0.10517805  0.57814685  0.02626031     0.25400
C366        C  0.13370649  0.61394640  0.02735771    -0.22700
C367        C  0.16191771  0.62546629  0.00562626     0.20300
C368        C  0.16127982  0.60190406  0.98302074     0.25300
C369        C  0.13251882  0.56622584  0.98166829    -0.22700
C370        C  0.10465169  0.55452392  0.00378442     0.20200
F371        F  0.07687147  0.52006065  0.00393633    -0.12600
F372        F  0.07773006  0.56580403  0.04704308    -0.15000
F373        F  0.18865933  0.61429914  0.96216741    -0.15000
F374        F  0.18983742  0.65985544  0.00565347    -0.12600
C375        C  0.18177691  0.76983663  0.99602764     0.25400
C376        C  0.19000637  0.77477264  0.02818739    -0.22700
C377        C  0.22257305  0.80518557  0.03780429     0.20300
C378        C  0.24750245  0.82835884  0.01577453     0.25300
C379        C  0.24068052  0.82142437  0.98355147    -0.22700
C380        C  0.20691374  0.79269382  0.97401434     0.20200
F381        F  0.19867988  0.78568876  0.94327244    -0.12600
F382        F  0.15013201  0.74167018  0.98558683    -0.15000
F383        F  0.27931411  0.85635418  0.02615629    -0.15000
F384        F  0.23129468  0.81161997  0.06851593    -0.12600
C385        C  0.34754548  0.36452060  0.08744113     0.25400
C386        C  0.37723476  0.37311123  0.10707091    -0.22700
C387        C  0.38852218  0.40144156  0.12852092     0.20300
C388        C  0.37313541  0.42300780  0.12814902     0.25300
C389        C  0.34584262  0.41663335  0.10647667    -0.22700
C390        C  0.33199943  0.38612293  0.08712860     0.20200
F391        F  0.30551786  0.37887616  0.06604041    -0.12600
F392        F  0.33554462  0.33713000  0.06664804    -0.15000
F393        F  0.38617311  0.45120523  0.14816573    -0.15000
F394        F  0.41586067  0.40948353  0.14890454    -0.12600
C395        C  0.36704669  0.03434918  0.91434650     0.25400
C396        C  0.40134879  0.05458787  0.90049957    -0.22700
C397        C  0.41591882  0.03624004  0.88511207     0.20300
C398        C  0.39830623  0.99886370  0.88585544     0.25300
C399        C  0.36512734  0.97863119  0.90139378    -0.22700
C400        C  0.34895381  0.99677510  0.91445196     0.20200
F401        F  0.31647321  0.97834173  0.92883104    -0.12600
F402        F  0.35175797  0.05081649  0.92929353    -0.15000
F403        F  0.41462448  0.98263891  0.87226226    -0.15000
F404        F  0.44810872  0.05450305  0.87025554    -0.12600
C405        C  0.41988046  0.23695977  0.96768177     0.25400
C406        C  0.42399277  0.20842241  0.97735991    -0.22700
C407        C  0.42144899  0.20037440  0.00937143     0.20300
C408        C  0.41838950  0.22245666  0.03137246     0.25300
C409        C  0.41784019  0.25306973  0.02186633    -0.22700
C410        C  0.41679544  0.25904402  0.98967675     0.20200
F411        F  0.41519032  0.28764891  0.97933358    -0.12600
F412        F  0.42068388  0.24468838  0.93696103    -0.15000
F413        F  0.41823898  0.21498857  0.06207510    -0.15000
F414        F  0.42467308  0.17268392  0.01972523    -0.12600
C415        C  0.61378142  0.66658987  0.90831997     0.25400
C416        C  0.57970210  0.65366833  0.89412479    -0.22700
C417        C  0.56406271  0.62091799  0.87781215     0.20300
C418        C  0.58021651  0.60005555  0.87818732     0.25300
C419        C  0.61252421  0.61126733  0.89492392    -0.22700
C420        C  0.62989500  0.64547666  0.90893522     0.20200
F421        F  0.66145507  0.65775818  0.92475560    -0.12600
F422        F  0.63061252  0.69874180  0.92318355    -0.15000
F423        F  0.56310539  0.56794487  0.86323937    -0.15000
F424        F  0.53213337  0.60812298  0.86245420    -0.12600
C425        C  0.53291821  0.45575112  0.97857587     0.25400
C426        C  0.56538525  0.45684960  0.97170637    -0.22700
C427        C  0.57352409  0.43352100  0.98747783     0.20300
C428        C  0.55036092  0.41049466  0.01035648     0.25300
C429        C  0.51818072  0.40979389  0.01763648    -0.22700
C430        C  0.50947215  0.43234777  0.00114846     0.20200
F431        F  0.47830917  0.43197678  0.00685851    -0.12600
F432        F  0.52371663  0.47732169  0.96343536    -0.15000
F433        F  0.55977095  0.38913439  0.02556959    -0.15000
F434        F  0.60447859  0.43361755  0.98147265    -0.12600
C435        C  0.96616011  0.64455857  0.07892337     0.25400
C436        C  0.94629322  0.61805841  0.10122368    -0.22700
C437        C  0.96528088  0.61319883  0.12565585     0.20300
C438        C  0.00324169  0.63230122  0.12631657     0.25300
C439        C  0.02317054  0.65644394  0.10234817    -0.22700
C440        C  0.00408256  0.66334657  0.07934680     0.20200
F441        F  0.02196523  0.68673328  0.05600938    -0.12600
F442        F  0.94897800  0.65055715  0.05524943    -0.15000
F443        F  0.02039453  0.62594474  0.14978591    -0.15000
F444        F  0.94711993  0.58907833  0.14846566    -0.12600
C445        C  0.74065499  0.55798966  0.03344594     0.25400
C446        C  0.77556186  0.56671741  0.02423325    -0.22700
C447        C  0.78521877  0.57541957  0.99271793     0.20300
C448        C  0.75996190  0.57316531  0.97070783     0.25300
C449        C  0.72454514  0.56277158  0.97966482    -0.22700
C450        C  0.71552976  0.55614673  0.01148946     0.20200
F451        F  0.68164142  0.54578427  0.02127123    -0.12600
F452        F  0.73000137  0.54928654  0.06345897    -0.15000
F453        F  0.76998070  0.58012566  0.94040202    -0.15000
F454        F  0.81879938  0.58481136  0.98278147    -0.12600
C455        C  0.96591976  0.41561772  0.87416142     0.25400
C456        C  0.94626904  0.38419026  0.89176664    -0.22700
C457        C  0.96541312  0.37096812  0.90805830     0.20300
C458        C  0.00332909  0.39019006  0.90868932     0.25300
C459        C  0.02289618  0.42300512  0.89300258    -0.22700
C460        C  0.00375068  0.43476849  0.87478441     0.20200
F461        F  0.02163237  0.46573355  0.85850861    -0.12600
F462        F  0.94858821  0.42885044  0.85742503    -0.15000
F463        F  0.02070412  0.37811905  0.92679301    -0.15000
F464        F  0.94754806  0.34084919  0.92541629    -0.12600
C465        C  0.80784479  0.41024290  0.99423743     0.25400
C466        C  0.83866704  0.41944749  0.97628203    -0.22700
C467        C  0.86970324  0.45351555  0.98054465     0.20300
C468        C  0.86986365  0.47773721  0.00219324     0.25300
C469        C  0.83899076  0.46853701  0.02005260    -0.22700
C470        C  0.80793179  0.43456445  0.01569703     0.20200
F471        F  0.77759815  0.42455656  0.03247845    -0.12600
F472        F  0.77755066  0.37748989  0.99134404    -0.15000
F473        F  0.90011817  0.51051566  0.00515901    -0.15000
F474        F  0.89999398  0.46364907  0.96365133    -0.12600
C475        C  0.57786983  0.00560536  0.12544479     0.25400
C476        C  0.59255317  0.98730529  0.10999313    -0.22700
C477        C  0.62620356  0.00770862  0.09522663     0.20300
C478        C  0.64355231  0.04522659  0.09415187     0.25300
C479        C  0.62741034  0.06328219  0.10754003    -0.22700
C480        C  0.59494551  0.04301244  0.12403047     0.20200
F481        F  0.57899029  0.05926912  0.13825898    -0.12600
F482        F  0.54633023  0.98723804  0.14121211    -0.15000
F483        F  0.67517779  0.06363505  0.07852893    -0.15000
F484        F  0.64147988  0.99132831  0.08010241    -0.12600
C485        C  0.55733349  0.14294983  0.02590442     0.25400
C486        C  0.59086298  0.17441028  0.03094018    -0.22700
C487        C  0.59947829  0.20499757  0.01322002     0.20300
C488        C  0.57534155  0.20377405  0.99054755     0.25300
C489        C  0.54245928  0.17181016  0.98480905    -0.22700
C490        C  0.53357613  0.14161984  0.00301518     0.20200
F491        F  0.50155770  0.11065052  0.99891298    -0.12600
F492        F  0.54768771  0.11296896  0.04262008    -0.15000
F493        F  0.58466349  0.23355316  0.97361902    -0.15000
F494        F  0.63145812  0.23599781  0.01743717    -0.12600
C495        C  0.78346233  0.24171019  0.02927911     0.25400
C496        C  0.74821679  0.21353255  0.02257704    -0.22700
C497        C  0.73704092  0.20633778  0.99112346     0.20300
C498        C  0.75844822  0.22961262  0.96755822     0.25300
C499        C  0.79198098  0.26018429  0.97470642    -0.22700
C500        C  0.80525151  0.26468514  0.00552956     0.20200
F501        F  0.83838959  0.29266398  0.01319704    -0.12600
F502        F  0.79617980  0.24826681  0.05901485    -0.15000
F503        F  0.74517996  0.22327574  0.93800296    -0.15000
F504        F  0.70410488  0.17818762  0.98320269    -0.12600
C505        C  0.31312842  0.81041671  0.78442791     0.25400
C506        C  0.32082944  0.78202391  0.78273408    -0.22700
C507        C  0.32889221  0.77180245  0.81189808     0.20300
C508        C  0.33007930  0.78912102  0.84003348     0.25300
C509        C  0.32230440  0.81673908  0.84072698    -0.22700
C510        C  0.31377430  0.82693360  0.81265779     0.20200
F511        F  0.30654993  0.85387271  0.81223384    -0.12600
F512        F  0.30403220  0.82293458  0.75931558    -0.15000
F513        F  0.33783296  0.77793572  0.86687562    -0.15000
F514        F  0.33454680  0.74387827  0.81366083    -0.12600
C515        C  0.44773778  0.59149457  0.50297734     0.25400
C516        C  0.43760444  0.61043612  0.52311369    -0.22700
C517        C  0.40301531  0.60596370  0.51967125     0.20300
C518        C  0.37890934  0.58255426  0.49701837     0.25300
C519        C  0.38886693  0.56306137  0.47736307    -0.22700
C520        C  0.42365693  0.56804510  0.48050838     0.20200
F521        F  0.43470176  0.55042207  0.46164078    -0.12600
F522        F  0.48127442  0.59594396  0.50459590    -0.15000
F523        F  0.34566152  0.57869334  0.49468352    -0.15000
F524        F  0.39234043  0.62410735  0.53827194    -0.12600
C525        C  0.24052724  0.45435705  0.51025076     0.25400
C526        C  0.23176020  0.45284333  0.47833868    -0.22700
C527        C  0.19828375  0.44897175  0.47018542     0.20300
C528        C  0.17553537  0.44953734  0.49316791     0.25300
C529        C  0.18574967  0.45405577  0.52491387    -0.22700
C530        C  0.21783569  0.45501898  0.53321518     0.20200
F531        F  0.22826567  0.45835102  0.56352301    -0.12600
F532        F  0.27225877  0.45755138  0.51936554    -0.15000
F533        F  0.14449478  0.44782253  0.48399553    -0.15000
F534        F  0.18822394  0.44638238  0.43982577    -0.12600
C535        C  0.28116270  0.79411212  0.68368492     0.25400
C536        C  0.31291635  0.82235852  0.67091138    -0.22700
C537        C  0.34597136  0.83312121  0.68590695     0.20300
C538        C  0.34762348  0.81489369  0.71203801     0.25300
C539        C  0.31641017  0.78376773  0.72313968    -0.22700
C540        C  0.28268863  0.77555923  0.70980946     0.20200
F541        F  0.25098397  0.75001592  0.72227039    -0.12600
F542        F  0.24857326  0.78377530  0.67044192    -0.15000
F543        F  0.38001382  0.82813734  0.72667189    -0.15000
F544        F  0.37692922  0.86195207  0.67557937    -0.12600
C545        C  0.16863196  0.58857253  0.51394350     0.25400
C546        C  0.13587462  0.55819953  0.52272471    -0.22700
C547        C  0.10346720  0.55193310  0.50882448     0.20300
C548        C  0.10373850  0.57579960  0.48705246     0.25300
C549        C  0.13641992  0.60652356  0.47865757    -0.22700
C550        C  0.16888984  0.61255710  0.49223483     0.20200
F551        F  0.20104229  0.64172820  0.48460651    -0.12600
F552        F  0.20056217  0.59511582  0.52619700    -0.15000
F553        F  0.07178575  0.56888211  0.47453571    -0.15000
F554        F  0.07125746  0.52276428  0.51637297    -0.12600
C555        C  0.20646483  0.80014767  0.47457957     0.25400
C556        C  0.18019312  0.76520621  0.48319404    -0.22700
C557        C  0.17495192  0.75658996  0.51512603     0.20300
C558        C  0.19806540  0.78106150  0.53756799     0.25300
C559        C  0.22686740  0.81469835  0.52862517    -0.22700
C560        C  0.22978774  0.82459187  0.49701652     0.20200
F561        F  0.25652288  0.85718711  0.48740728    -0.12600
F562        F  0.21080678  0.81018315  0.44423850    -0.15000
F563        F  0.19364965  0.77072120  0.56782916    -0.15000
F564        F  0.14910587  0.72353439  0.52466491    -0.12600
C565        C  0.40325886  0.83799835  0.49229342     0.25400
C566        C  0.43392072  0.87011369  0.48279263    -0.22700
C567        C  0.44057902  0.90257138  0.49613678     0.20300
C568        C  0.41716954  0.90296466  0.51832089     0.25300
C569        C  0.38649711  0.87092206  0.52782871    -0.22700
C570        C  0.37981081  0.83839179  0.51457200     0.20200
F571        F  0.35036644  0.80684924  0.52286801    -0.12600
F572        F  0.39583874  0.80609408  0.48009791    -0.15000
F573        F  0.42468920  0.93493446  0.53042727    -0.15000
F574        F  0.46989115  0.93420809  0.48783624    -0.12600
C575        C  0.54568882  0.82422672  0.51078720     0.25400
C576        C  0.53902718  0.81501529  0.47892988    -0.22700
C577        C  0.53576241  0.78266534  0.46891296     0.20300
C578        C  0.53642041  0.75893863  0.49045227     0.25300
C579        C  0.54024543  0.76687391  0.52263199    -0.22700
C580        C  0.54616736  0.80037319  0.53240334     0.20200
F581        F  0.55074681  0.80947848  0.56306223    -0.12600
F582        F  0.54977708  0.85550836  0.52142988    -0.15000
F583        F  0.53144107  0.72731863  0.47973292    -0.15000
F584        F  0.53035791  0.77312045  0.43833849    -0.12600
C585        C  0.36515296  0.37235520  0.40880394     0.25400
C586        C  0.39786197  0.38772799  0.39211520    -0.22700
C587        C  0.40700363  0.41761473  0.37329260     0.20300
C588        C  0.38588648  0.43360518  0.37330605     0.25300
C589        C  0.35510301  0.42036620  0.39228466    -0.22700
C590        C  0.34397032  0.38849736  0.40885682     0.20200
F591        F  0.31392705  0.37422921  0.42681340    -0.12600
F592        F  0.35476691  0.34304039  0.42670588    -0.15000
F593        F  0.39653125  0.46309757  0.35556710    -0.15000
F594        F  0.43736356  0.43248546  0.35571203    -0.12600
C595        C  0.34529740  0.03240479  0.58561056     0.25400
C596        C  0.37442261  0.05284958  0.60610238    -0.22700
C597        C  0.38195667  0.03506004  0.62960264     0.20300
C598        C  0.36399271  0.99772300  0.63017466     0.25300
C599        C  0.33797632  0.97725164  0.60732593    -0.22700
C600        C  0.32715767  0.99482991  0.58623424     0.20200
F601        F  0.30121556  0.97590351  0.56449119    -0.12600
F602        F  0.33644218  0.04859676  0.56322164    -0.15000
F603        F  0.37354558  0.98166717  0.65215586    -0.15000
F604        F  0.40833625  0.05385900  0.65105000    -0.12600
C605        C  0.48795213  0.26442148  0.51738769     0.25400
C606        C  0.45563508  0.23139168  0.52110008    -0.22700
C607        C  0.42664745  0.22290793  0.50056934     0.20300
C608        C  0.43005290  0.24682443  0.47689794     0.25300
C609        C  0.46258713  0.27972668  0.47310071    -0.22700
C610        C  0.49141598  0.28809718  0.49379490     0.20200
F611        F  0.52324989  0.31956379  0.49154673    -0.12600
F612        F  0.51651188  0.27415909  0.53679684    -0.15000
F613        F  0.40157116  0.23755483  0.45755191    -0.15000
F614        F  0.39524198  0.19107376  0.50284245    -0.12600
C615        C  0.59686940  0.60514225  0.62439941     0.25400
C616        C  0.62865640  0.61800278  0.60694553    -0.22700
C617        C  0.64236420  0.65082266  0.59132215     0.20300
C618        C  0.62262807  0.66852043  0.59080935     0.25300
C619        C  0.58902323  0.65367948  0.60606644    -0.22700
C620        C  0.57734356  0.62263984  0.62396657     0.20200
F621        F  0.54575757  0.60781643  0.63983851    -0.12600
F622        F  0.58347259  0.57427645  0.64074422    -0.15000
F623        F  0.63516699  0.69868224  0.57361329    -0.15000
F624        F  0.67321488  0.66426504  0.57452255    -0.12600
C625        C  0.55326936  0.45491302  0.52756469     0.25400
C626        C  0.58404847  0.48738698  0.51903424    -0.22700
C627        C  0.58909809  0.49737610  0.48742393     0.20300
C628        C  0.56491123  0.47423843  0.46468030     0.25300
C629        C  0.53524465  0.44092836  0.47323629    -0.22700
C630        C  0.52921342  0.43198747  0.50496934     0.20200
F631        F  0.50118161  0.39992024  0.51419588    -0.12600
F632        F  0.54688748  0.44453942  0.55780873    -0.15000
F633        F  0.57095300  0.48409912  0.43430156    -0.15000
F634        F  0.61811464  0.52882438  0.47831779    -0.12600
C635        C  0.97149577  0.63559471  0.41649817     0.25400
C636        C  0.95229783  0.60553876  0.39694320    -0.22700
C637        C  0.97176062  0.59575855  0.37701345     0.20300
C638        C  0.00948548  0.61429753  0.37791912     0.25300
C639        C  0.02864457  0.64314487  0.39865384    -0.22700
C640        C  0.00932639  0.65434880  0.41721018     0.20200
F641        F  0.02686116  0.68173837  0.43786270    -0.12600
F642        F  0.95377497  0.64521413  0.43673731    -0.15000
F643        F  0.02718663  0.60311397  0.35923918    -0.15000
F644        F  0.95428446  0.56713018  0.35755506    -0.12600
C645        C  0.77879787  0.57511088  0.48282783     0.25400
C646        C  0.78080736  0.54406865  0.47901635    -0.22700
C647        C  0.76355245  0.51638467  0.50096018     0.20300
C648        C  0.74378868  0.51915232  0.52543953     0.25300
C649        C  0.74063864  0.54966583  0.52867890    -0.22700
C650        C  0.75885469  0.57785793  0.50733817     0.20200
F651        F  0.75639622  0.60765373  0.50946040    -0.12600
F652        F  0.79528599  0.60246805  0.46232871    -0.15000
F653        F  0.72734432  0.49154918  0.54575712    -0.15000
F654        F  0.76606566  0.48657068  0.49904262    -0.12600
C655        C  0.00444171  0.38549358  0.58713579     0.25400
C656        C  0.02502811  0.41539347  0.60661412    -0.22700
C657        C  0.00698290  0.42587491  0.62740377     0.20300
C658        C  0.96930469  0.40827588  0.62755436     0.25300
C659        C  0.94862508  0.37994144  0.60667505    -0.22700
C660        C  0.96649039  0.36790677  0.58713077     0.20200
F661        F  0.94751459  0.34120175  0.56616883    -0.12600
F662        F  0.02099837  0.37533839  0.56611730    -0.15000
F663        F  0.95307821  0.42014418  0.64727439    -0.15000
F664        F  0.02592457  0.45438569  0.64671739    -0.12600
C665        C  0.86591591  0.45993725  0.53050042     0.25400
C666        C  0.86044822  0.42620366  0.52255120    -0.22700
C667        C  0.85589897  0.41560263  0.49105526     0.20300
C668        C  0.85515508  0.43778083  0.46801882     0.25300
C669        C  0.85954195  0.47105089  0.47611249    -0.22700
C670        C  0.86562442  0.48227668  0.50744395     0.20200
F671        F  0.86928949  0.51404326  0.51602140    -0.12600
F672        F  0.87100609  0.47108771  0.56065802    -0.15000
F673        F  0.84966990  0.42652951  0.43787997    -0.15000
F674        F  0.85018219  0.38297069  0.48269983    -0.12600
C675        C  0.58886098  0.03159662  0.37604045     0.25400
C676        C  0.61734882  0.05215247  0.39706962    -0.22700
C677        C  0.63002163  0.03458483  0.41617638     0.20300
C678        C  0.61217766  0.99711555  0.41652463     0.25300
C679        C  0.58129837  0.97656892  0.39785204    -0.22700
C680        C  0.57098558  0.99425357  0.37648932     0.20200
F681        F  0.54223312  0.97543225  0.35713203    -0.12600
F682        F  0.57678226  0.04748295  0.35617799    -0.15000
F683        F  0.62341619  0.98106583  0.43700465    -0.15000
F684        F  0.65789454  0.05342751  0.43632614    -0.12600
C685        C  0.57137428  0.13792178  0.51271560     0.25400
C686        C  0.56227262  0.13312060  0.48091777    -0.22700
C687        C  0.52823549  0.12653584  0.47129513     0.20300
C688        C  0.50411552  0.12625385  0.49305233     0.25300
C689        C  0.51413728  0.13348778  0.52464575    -0.22700
C690        C  0.54757005  0.13832266  0.53443452     0.20200
F691        F  0.55782324  0.14472547  0.56485212    -0.12600
F692        F  0.60442449  0.14498641  0.52248736    -0.15000
F693        F  0.47195263  0.12118960  0.48285416    -0.15000
F694        F  0.51874942  0.12139861  0.44068627    -0.12600
C695        C  0.71733683  0.25754991  0.49127348     0.25400
C696        C  0.72119256  0.22952197  0.47925008    -0.22700
C697        C  0.74891932  0.22483941  0.49138523     0.20300
C698        C  0.77191450  0.24737314  0.51513830     0.25300
C699        C  0.76776588  0.27515238  0.52732653    -0.22700
C700        C  0.74032329  0.28007774  0.51483200     0.20200
F701        F  0.73564788  0.30694262  0.52520280    -0.12600
F702        F  0.69115054  0.26332484  0.48033334    -0.15000
F703        F  0.79836917  0.24201791  0.52604327    -0.15000
F704        F  0.75358268  0.19812926  0.48062226    -0.12600
C705        C  0.77729640  0.37170685  0.71555259     0.25400
C706        C  0.74371520  0.34052752  0.72214207    -0.22700
C707        C  0.73553391  0.30900487  0.70506312     0.20300
C708        C  0.75719670  0.31016541  0.68024565     0.25300
C709        C  0.78820600  0.34232959  0.67194493    -0.22700
C710        C  0.79858991  0.37278795  0.69047866     0.20200
F711        F  0.82968006  0.40390465  0.68440539    -0.12600
F712        F  0.78909530  0.40201838  0.73255446    -0.15000
F713        F  0.74706454  0.27975252  0.66373988    -0.15000
F714        F  0.70667839  0.27651765  0.71205584    -0.12600
C715        C  0.76364324  0.37199609  0.79730778     0.25400
C716        C  0.74147211  0.34036921  0.77949683    -0.22700
C717        C  0.74366937  0.30984594  0.78744875     0.20300
C718        C  0.76291859  0.30965985  0.81396301     0.25300
C719        C  0.78179435  0.34033013  0.83279515    -0.22700
C720        C  0.78253013  0.37157909  0.82363936     0.20200
F721        F  0.80282523  0.40264668  0.83967967    -0.12600
F722        F  0.76864918  0.40431380  0.78917442    -0.15000
F723        F  0.76236328  0.27912424  0.82152147    -0.15000
F724        F  0.72601778  0.27941696  0.77022924    -0.12600
C725        C  0.42414401  0.66089732  0.71072884     0.25400
C726        C  0.42572191  0.69313208  0.71972257    -0.22700
C727        C  0.45080842  0.72466012  0.70354809     0.20300
C728        C  0.46936714  0.72307329  0.67736396     0.25300
C729        C  0.46476148  0.69034928  0.66695651    -0.22700
C730        C  0.44259002  0.65944538  0.68440285     0.20200
F731        F  0.43939562  0.62772036  0.67646648    -0.12600
F732        F  0.40506465  0.63064175  0.72771534    -0.15000
F733        F  0.49162347  0.75379298  0.66193484    -0.15000
F734        F  0.45836960  0.75746809  0.71336034    -0.12600
C735        C  0.41395472  0.70208450  0.80940113     0.25400
C736        C  0.42666955  0.69919155  0.77945773    -0.22700
C737        C  0.46128155  0.70181848  0.77956012     0.20300
C738        C  0.47970908  0.70426567  0.80726900     0.25300
C739        C  0.46504595  0.70398125  0.83633395    -0.22700
C740        C  0.43217744  0.70334566  0.83708309     0.20200
F741        F  0.41749459  0.70411865  0.86479005    -0.12600
F742        F  0.38284969  0.70263202  0.81229812    -0.15000
F743        F  0.51191575  0.70575430  0.80541459    -0.15000
F744        F  0.47886898  0.70241340  0.75329892    -0.12600
C745        C  0.40402249  0.75322613  0.76616393     0.25400
C746        C  0.39569227  0.72548771  0.74418482    -0.22700
C747        C  0.37822901  0.72766283  0.71697065     0.20300
C748        C  0.35913462  0.74557660  0.71737567     0.25300
C749        C  0.35460582  0.75985445  0.74545207    -0.22700
C750        C  0.38346246  0.77015826  0.76689385     0.20200
F751        F  0.39386248  0.79807738  0.78678138    -0.12600
F752        F  0.43309758  0.76587593  0.78541272    -0.15000
F753        F  0.34833469  0.75178991  0.68964035    -0.15000
F754        F  0.38222122  0.71570095  0.68902000    -0.12600
C755        C  0.22811559  0.55309946  0.71124259     0.25400
C756        C  0.22324676  0.58109177  0.72271258    -0.22700
C757        C  0.19523339  0.58432304  0.70843824     0.20300
C758        C  0.17695295  0.56431525  0.68182491     0.25300
C759        C  0.18410912  0.53867345  0.66939297    -0.22700
C760        C  0.20925943  0.53272459  0.68488258     0.20200
F761        F  0.21697786  0.50819198  0.67369318    -0.12600
F762        F  0.25289141  0.54656624  0.72413628    -0.15000
F763        F  0.15201226  0.57022129  0.66816245    -0.15000
F764        F  0.18618552  0.60803791  0.71906309    -0.12600
C765        C  0.22906810  0.55602357  0.79404581     0.25400
C766        C  0.22367186  0.58263987  0.78020569    -0.22700
C767        C  0.19358705  0.58444545  0.79142278     0.20300
C768        C  0.17446243  0.56560408  0.81796960     0.25300
C769        C  0.18280604  0.54231972  0.83339277    -0.22700
C770        C  0.20953140  0.53687925  0.82048145     0.20200
F771        F  0.21769313  0.51371957  0.83401649    -0.12600
F772        F  0.25409520  0.54890615  0.78287552    -0.15000
F773        F  0.14724853  0.56998304  0.82840240    -0.15000
F774        F  0.18316793  0.60573107  0.77769334    -0.12600
C775        C  0.25699909  0.66434882  0.77814265     0.25400
C776        C  0.25185130  0.64406350  0.75054135    -0.22700
C777        C  0.26086154  0.66373707  0.72241146     0.20300
C778        C  0.27795597  0.70101346  0.72224450     0.25300
C779        C  0.28745587  0.72163503  0.75017301    -0.22700
C780        C  0.27055019  0.70140127  0.77723078     0.20200
F781        F  0.26518127  0.71632128  0.80280486    -0.12600
F782        F  0.25053357  0.64925064  0.80674479    -0.15000
F783        F  0.28441700  0.71630413  0.69379895    -0.15000
F784        F  0.25526512  0.64760780  0.69422181    -0.12600
C785        C  0.34361245  0.64580271  0.72106282     0.25400
C786        C  0.36484275  0.65876270  0.74869315    -0.22700
C787        C  0.34601684  0.64082146  0.77608177     0.20300
C788        C  0.30811141  0.62347177  0.77760977     0.25300
C789        C  0.28651220  0.61490931  0.75028718    -0.22700
C790        C  0.30590041  0.62440304  0.72180557     0.20200
F791        F  0.28881735  0.61508056  0.69380268    -0.12600
F792        F  0.35887101  0.65263939  0.69248711    -0.15000
F793        F  0.29327767  0.61627122  0.80639009    -0.15000
F794        F  0.36315518  0.63696460  0.80090357    -0.12600
C795        C  0.53910945  0.21717230  0.71101041     0.25400
C796        C  0.54052521  0.24923563  0.72002556    -0.22700
C797        C  0.51658054  0.25759373  0.70436359     0.20300
C798        C  0.49641526  0.23772871  0.67831586     0.25300
C799        C  0.49836168  0.20823905  0.66780113    -0.22700
C800        C  0.51895925  0.19751158  0.68504511     0.20200
F801        F  0.51934605  0.16751628  0.67695326    -0.12600
F802        F  0.55704344  0.20446770  0.72755530    -0.15000
F803        F  0.47574160  0.24805027  0.66286487    -0.15000
F804        F  0.51185948  0.28451127  0.71439894    -0.12600
C805        C  0.50858300  0.22367965  0.78091924     0.25400
C806        C  0.54471701  0.25379430  0.77968553    -0.22700
C807        C  0.56193801  0.26737117  0.80914647     0.20300
C808        C  0.54609630  0.24975718  0.83709228     0.25300
C809        C  0.51170871  0.21882298  0.83723458    -0.22700
C810        C  0.49286636  0.20669067  0.80902711     0.20200
F811        F  0.45904997  0.17741860  0.80835685    -0.12600
F812        F  0.48693464  0.21006899  0.75549526    -0.15000
F813        F  0.56447528  0.26341776  0.86422494    -0.15000
F814        F  0.59493555  0.29769358  0.81109096    -0.12600
C815        C  0.62305945  0.28525537  0.71782422     0.25400
C816        C  0.60261857  0.27349473  0.74546658    -0.22700
C817        C  0.62075694  0.26761159  0.77030911     0.20300
C818        C  0.65877974  0.28689466  0.77219892     0.25300
C819        C  0.67990407  0.30844182  0.74698830    -0.22700
C820        C  0.66071190  0.30442727  0.71885361     0.20200
F821        F  0.67817856  0.32059555  0.69219649    -0.12600
F822        F  0.60699668  0.27724838  0.68938683    -0.15000
F823        F  0.67375089  0.28591428  0.79968258    -0.15000
F824        F  0.60247501  0.24237606  0.79220916    -0.12600
C825        C  0.68712509  0.48364138  0.71419932     0.25400
C826        C  0.65417771  0.45173669  0.72125647    -0.22700
C827        C  0.62335521  0.44501691  0.70348819     0.20300
C828        C  0.62639888  0.46588126  0.67778755     0.25300
C829        C  0.65980424  0.49542290  0.66925904    -0.22700
C830        C  0.68999810  0.50475804  0.68829141     0.20200
F831        F  0.72262012  0.53367050  0.68134259    -0.12600
F832        F  0.71727173  0.49363354  0.73144911    -0.15000
F833        F  0.59593837  0.45705009  0.66130493    -0.15000
F834        F  0.58953766  0.41825487  0.71055234    -0.12600
C835        C  0.68319586  0.47177229  0.79692592     0.25400
C836        C  0.65162785  0.45006230  0.77860412    -0.22700
C837        C  0.62092657  0.45279315  0.78551300     0.20300
C838        C  0.61978597  0.47086470  0.81215828     0.25300
C839        C  0.65030511  0.48988837  0.83136012    -0.22700
C840        C  0.68241636  0.49138487  0.82271624     0.20200
F841        F  0.71301597  0.51105619  0.83982452    -0.12600
F842        F  0.71530984  0.47473161  0.79007029    -0.15000
F843        F  0.58856519  0.46988836  0.81905805    -0.15000
F844        F  0.59070090  0.43593533  0.76762163    -0.12600
C845        C  0.57152036  0.33196389  0.77037271     0.25400
C846        C  0.57453966  0.31202350  0.74559377    -0.22700
C847        C  0.59051751  0.33213528  0.71832358     0.20300
C848        C  0.61230749  0.36920830  0.71924423     0.25300
C849        C  0.61721970  0.38902415  0.74696880    -0.22700
C850        C  0.59445421  0.36933914  0.77223483     0.20200
F851        F  0.59567782  0.38480231  0.79998505    -0.12600
F852        F  0.54624860  0.31610534  0.79285792    -0.15000
F853        F  0.63017606  0.38540823  0.69273695    -0.15000
F854        F  0.58439236  0.31652357  0.68991257    -0.12600
C855        C  0.71529498  0.39345991  0.72461623     0.25400
C856        C  0.71287122  0.37245415  0.75077509    -0.22700
C857        C  0.69614277  0.37647933  0.77763158     0.20300
C858        C  0.68208553  0.39903227  0.77827093     0.25300
C859        C  0.68149272  0.41764173  0.75146650    -0.22700
C860        C  0.70006714  0.41547117  0.72495492     0.20200
F861        F  0.70051690  0.43128794  0.69769540    -0.12600
F862        F  0.72869667  0.39023630  0.69709590    -0.15000
F863        F  0.66486539  0.39900065  0.80468555    -0.15000
F864        F  0.69102261  0.35646544  0.80340712    -0.12600
C865        C  0.46445475  0.78970627  0.32784858     0.25400
C866        C  0.46424239  0.82061671  0.33665458    -0.22700
C867        C  0.44902381  0.83459730  0.31637593     0.20300
C868        C  0.43258073  0.81691117  0.28846124     0.25300
C869        C  0.42818881  0.78302119  0.28123802    -0.22700
C870        C  0.44721419  0.77136274  0.30036111     0.20200
F871        F  0.45048613  0.74301447  0.29218647    -0.12600
F872        F  0.48067289  0.77666021  0.34631111    -0.15000
F873        F  0.42001378  0.83248174  0.26875467    -0.15000
F874        F  0.45065655  0.86585350  0.32333308    -0.12600
C875        C  0.41936049  0.76734026  0.19097935     0.25400
C876        C  0.43154179  0.77996770  0.22191983    -0.22700
C877        C  0.46840689  0.80910782  0.22407085     0.20300
C878        C  0.48859892  0.82701406  0.19763883     0.25300
C879        C  0.47414606  0.81650204  0.16765383    -0.22700
C880        C  0.43969218  0.78573215  0.16464239     0.20200
F881        F  0.42543817  0.77296585  0.13594893    -0.12600
F882        F  0.38743321  0.73656862  0.18569650    -0.15000
F883        F  0.52264565  0.85530287  0.20171421    -0.15000
F884        F  0.48686718  0.82057077  0.25134157    -0.12600
C885        C  0.24226101  0.68730590  0.31184445     0.25400
C886        C  0.23062266  0.69275611  0.28216189    -0.22700
C887        C  0.20007779  0.69753169  0.28297483     0.20300
C888        C  0.18339958  0.69740446  0.31093207     0.25300
C889        C  0.19483124  0.69109419  0.33943475    -0.22700
C890        C  0.22423645  0.68568617  0.33957078     0.20200
F891        F  0.23606217  0.67919865  0.36674224    -0.12600
F892        F  0.27146834  0.68333741  0.31435206    -0.15000
F893        F  0.15472749  0.70232364  0.30975798    -0.15000
F894        F  0.18491914  0.70227538  0.25719714    -0.12600
C895        C  0.23204396  0.72586414  0.21006345     0.25400
C896        C  0.22813404  0.69360074  0.22203254    -0.22700
C897        C  0.20019620  0.66119251  0.20860221     0.20300
C898        C  0.18149360  0.66120510  0.18189409     0.25300
C899        C  0.18758983  0.69335271  0.16880437    -0.22700
C900        C  0.21228189  0.72566123  0.18376314     0.20200
F901        F  0.21776871  0.75723906  0.17270985    -0.12600
F902        F  0.25429218  0.75766518  0.22437618    -0.15000
F903        F  0.15638391  0.62926418  0.16932632    -0.15000
F904        F  0.18989755  0.62900037  0.22160297    -0.12600
C905        C  0.31186593  0.73843955  0.22200669     0.25400
C906        C  0.29114422  0.72654005  0.24985682    -0.22700
C907        C  0.31143072  0.74455908  0.27686349     0.20300
C908        C  0.34910105  0.75956297  0.27788659     0.25300
C909        C  0.36930833  0.76249835  0.25056880    -0.22700
C910        C  0.34987120  0.75845060  0.22276565     0.20200
F911        F  0.36650009  0.77881072  0.19755193    -0.12600
F912        F  0.29610995  0.73413671  0.19370697    -0.15000
F913        F  0.36504408  0.77180701  0.30610233    -0.15000
F914        F  0.29617024  0.75077954  0.30175085    -0.12600
C915        C  0.66961715  0.22786143  0.22619301     0.25400
C916        C  0.66581632  0.25870800  0.22580440    -0.22700
C917        C  0.67243366  0.27636911  0.19655302     0.20300
C918        C  0.67688018  0.26138299  0.16913512     0.25300
C919        C  0.67693955  0.22916616  0.16981997    -0.22700
C920        C  0.67471830  0.21351454  0.19877045     0.20200
F921        F  0.67594584  0.18300368  0.20064482    -0.12600
F922        F  0.66868737  0.21052738  0.25261409    -0.15000
F923        F  0.68040210  0.27826377  0.14169041    -0.15000
F924        F  0.67244825  0.30747088  0.19391607    -0.12600
C925        C  0.68336058  0.24167349  0.32963328     0.25400
C926        C  0.65145001  0.20984955  0.33675566    -0.22700
C927        C  0.62139303  0.19788869  0.31692020     0.20300
C928        C  0.62296886  0.21781115  0.29080383     0.25300
C929        C  0.65403250  0.25172663  0.28474047    -0.22700
C930        C  0.68486618  0.26224972  0.30408819     0.20200
F931        F  0.71735044  0.29165739  0.29797996    -0.12600
F932        F  0.71326052  0.25338256  0.34778330    -0.15000
F933        F  0.59419965  0.20342533  0.27101647    -0.15000
F934        F  0.59059505  0.16623433  0.32230326    -0.12600
C935        C  0.76028994  0.43341067  0.19311666     0.25400
C936        C  0.74962165  0.44804186  0.21783362    -0.22700
C937        C  0.75805067  0.48402010  0.21353177     0.20300
C938        C  0.77671031  0.50414350  0.18724235     0.25300
C939        C  0.78726842  0.48916353  0.16358341    -0.22700
C940        C  0.77907515  0.45375708  0.16717904     0.20200
F941        F  0.78803796  0.43768571  0.14468699    -0.12600
F942        F  0.74993392  0.39854173  0.19084073    -0.15000
F943        F  0.78373162  0.53821400  0.18480078    -0.15000
F944        F  0.74757911  0.50000533  0.23480301    -0.12600
C945        C  0.73252998  0.46192947  0.30214791     0.25400
C946        C  0.74758239  0.45241479  0.27677229    -0.22700
C947        C  0.78509896  0.46432836  0.27961491     0.20300
C948        C  0.80581078  0.48422419  0.30529475     0.25300
C949        C  0.79045014  0.49379863  0.32920933    -0.22700
C950        C  0.75408218  0.48345567  0.32692690     0.20200
F951        F  0.73821094  0.49109678  0.35059181    -0.12600
F952        F  0.69682616  0.44768253  0.30658791    -0.15000
F953        F  0.84113459  0.49378399  0.30693528    -0.15000
F954        F  0.80215210  0.45585670  0.25773174    -0.12600
C955        C  0.69422277  0.37083933  0.28104134     0.25400
C956        C  0.72071175  0.39017582  0.25807205    -0.22700
C957        C  0.73738737  0.37187833  0.24629542     0.20300
C958        C  0.71828257  0.33402304  0.24598408     0.25300
C959        C  0.68427041  0.31425868  0.26112834    -0.22700
C960        C  0.67807787  0.33402197  0.28368301     0.20200
F961        F  0.65700069  0.31836784  0.30875981    -0.12600
F962        F  0.68188274  0.38676452  0.30016584    -0.15000
F963        F  0.73442359  0.31725088  0.23315692    -0.15000
F964        F  0.77275062  0.38982404  0.23822045    -0.12600
C965        C  0.28261885  0.54946692  0.28965230     0.25400
C966        C  0.31389390  0.58293015  0.28282933    -0.22700
C967        C  0.34489949  0.59291420  0.30189291     0.20300
C968        C  0.34327378  0.57296516  0.32788049     0.25300
C969        C  0.31135279  0.54137085  0.33572255    -0.22700
C970        C  0.28109906  0.52953920  0.31607746     0.20200
F971        F  0.24979222  0.49885934  0.32259433    -0.12600
F972        F  0.25299543  0.53610210  0.27098222    -0.15000
F973        F  0.37401841  0.58413794  0.34474339    -0.15000
F974        F  0.37806340  0.62102840  0.29501201    -0.12600
C975        C  0.34550351  0.55689339  0.19354555     0.25400
C976        C  0.31605785  0.54038148  0.17274994    -0.22700
C977        C  0.28471659  0.54098825  0.18010687     0.20300
C978        C  0.28397529  0.56057459  0.20578764     0.25300
C979        C  0.31517515  0.58117020  0.22495270    -0.22700
C980        C  0.34461655  0.57592950  0.21973310     0.20200
F981        F  0.37355508  0.59062981  0.23925196    -0.12600
F982        F  0.37519854  0.55430736  0.18874440    -0.15000
F983        F  0.25196352  0.55828185  0.21179436    -0.15000
F984        F  0.25467973  0.52320325  0.16194971    -0.12600
C985        C  0.26070531  0.61141882  0.27213617     0.25400
C986        C  0.28531753  0.61419524  0.24888712    -0.22700
C987        C  0.28670326  0.63341578  0.22174578     0.20300
C988        C  0.27138033  0.65482063  0.22101443     0.25300
C989        C  0.25479424  0.65924922  0.24758914    -0.22700
C990        C  0.24345060  0.63146214  0.26989605     0.20200
F991        F  0.21525527  0.62262633  0.28916057    -0.12600
F992        F  0.25467817  0.59177733  0.29819886    -0.15000
F993        F  0.27219369  0.67033609  0.19356486    -0.15000
F994        F  0.30615955  0.63444694  0.19655077    -0.12600
C995        C  0.39856836  0.69982786  0.23316350     0.25400
C996        C  0.39308946  0.72097252  0.25524109    -0.22700
C997        C  0.37197151  0.70201258  0.28129605     0.20300
C998        C  0.35041071  0.66497494  0.28115427     0.25300
C999        C  0.34906943  0.64400825  0.25524310    -0.22700
C1000       C  0.37519751  0.66236362  0.23172521     0.20200
F1001       F  0.37725875  0.64540764  0.20604324    -0.12600
F1002       F  0.42674772  0.71456009  0.21317162    -0.15000
F1003       F  0.32864121  0.64967471  0.30612846    -0.15000
F1004       F  0.37217417  0.71899711  0.30781322    -0.12600
C1005       C  0.51880484  0.30516392  0.20033897     0.25400
C1006       C  0.54836994  0.33791740  0.21175674    -0.22700
C1007       C  0.55358386  0.36978118  0.19769715     0.20300
C1008       C  0.53328347  0.36879678  0.17187358     0.25300
C1009       C  0.50516443  0.33623988  0.16002534    -0.22700
C1010       C  0.49780444  0.30443935  0.17482651     0.20200
F1011       F  0.47008623  0.27245210  0.16473166    -0.12600
F1012       F  0.50857431  0.27385068  0.21504590    -0.15000
F1013       F  0.54054486  0.40032658  0.15915547    -0.15000
F1014       F  0.57755817  0.40259412  0.20929926    -0.12600
C1015       C  0.51757084  0.33724674  0.27309540     0.25400
C1016       C  0.55376431  0.34417816  0.27168662    -0.22700
C1017       C  0.57314518  0.35365631  0.30056047     0.20300
C1018       C  0.55769244  0.35646447  0.32840109     0.25300
C1019       C  0.52192970  0.34906528  0.32903341    -0.22700
C1020       C  0.50227911  0.33951783  0.30110317     0.20200
F1021       F  0.46778434  0.33265796  0.30062673    -0.12600
F1022       F  0.49537152  0.32718245  0.24800656    -0.15000
F1023       F  0.57755760  0.36521836  0.35506863    -0.15000
F1024       F  0.60681542  0.35846496  0.30236629    -0.12600
C1025       C  0.58419579  0.29065613  0.21738390     0.25400
C1026       C  0.57566132  0.30544485  0.24332049    -0.22700
C1027       C  0.57601331  0.28953517  0.27196303     0.20300
C1028       C  0.59784643  0.27444925  0.27597075     0.25300
C1029       C  0.61779704  0.27184113  0.25071289    -0.22700
C1030       C  0.60341491  0.27276497  0.22126829     0.20200
F1031       F  0.60381231  0.25313394  0.19689204    -0.12600
F1032       F  0.57222627  0.29108358  0.18823008    -0.15000
F1033       F  0.59864935  0.26226041  0.30483007    -0.15000
F1034       F  0.55380338  0.28607137  0.29568157    -0.12600
C1035       C  0.66561760  0.42911229  0.25192058     0.25400
C1036       C  0.68747332  0.41754558  0.23797579    -0.22700
C1037       C  0.66970039  0.39140707  0.21425820     0.20300
C1038       C  0.63237617  0.37182400  0.21192916     0.25300
C1039       C  0.61095603  0.37257821  0.23618365    -0.22700
C1040       C  0.62770703  0.40555935  0.25318814     0.20200
F1041       F  0.60769256  0.41672762  0.26843907    -0.12600
F1042       F  0.67968815  0.46387457  0.26028540    -0.15000
F1043       F  0.61778808  0.35319007  0.18532770    -0.15000
F1044       F  0.68773998  0.38286238  0.19380545    -0.12600
loop_ 
_geom_bond_atom_site_label_1 
_geom_bond_atom_site_label_2 
_geom_bond_distance 
_geom_bond_site_symmetry_2 
_ccdc_geom_bond_type 
C1         C1006   1.569       .  S
C1         C1016   1.585       .  S
C1         C1026   1.599       .  S
C1         C1039   1.582       .  S
C2          C966   1.574       .  S
C2          C979   1.572       .  S
C2          C986   1.571       .  S
C2          C999   1.575       .  S
C3          C936   1.587       .  S
C3          C946   1.585       .  S
C3          C956   1.578       .  S
C3         C1036   1.575       .  S
C4          C916   1.587       .  S
C4          C929   1.561       .  S
C4          C959   1.576       .  S
C4         C1029   1.602       .  S
C5          C886   1.596       .  S
C5          C896   1.570       .  S
C5          C906   1.600       .  S
C5          C989   1.586       .  S
C6          C869   1.562       .  S
C6          C876   1.603       .  S
C6          C909   1.605       .  S
C6          C996   1.582       .  S
C7          C826   1.569       .  S
C7          C836   1.570       .  S
C7          C849   1.575       .  S
C7          C859   1.574       .  S
C8          C796   1.561       .  S
C8          C806   1.588       .  S
C8          C816   1.594       .  S
C8          C846   1.588       .  S
C9          C756   1.574       .  S
C9          C766   1.577       .  S
C9          C776   1.578       .  S
C9          C789   1.577       .  S
C10         C726   1.568       .  S
C10         C736   1.596       .  S
C10         C746   1.584       .  S
C10         C786   1.600       .  S
C11         C706   1.569       .  S
C11         C716   1.572       .  S
C11         C819   1.570       .  S
C11         C856   1.577       .  S
In12         O14   2.237       .  S
In12         O15   2.270       .  S
In12         O23   2.262       .  S
In12         O17   2.231       .  S
In12         O19   2.232       .  S
In12         O20   2.234       .  S
In12         O21   2.240       .  S
In12         O24   2.269       .  S
C13          O19   1.259       .  A
C13          O21   1.259       .  A
C13         C686   1.466       .  S
O14          C22   1.257       .  A
O15          C22   1.261       .  A
C16          O23   1.265       .  A
C16          O17   1.257       .  A
C16         C926   1.479       .  S
C18          O20   1.260       .  A
C18          O24   1.266       .  A
C18         C696   1.491       .  S
C22         C676   1.485       .  S
In25         O27   2.228       .  S
In25         O28   2.283       .  S
In25         O36   2.278       .  S
In25         O30   2.242       .  S
In25         O32   2.236       .  S
In25         O33   2.264       .  S
In25         O34   2.233       .  S
In25         O37   2.233       .  S
C26          O32   1.261       .  A
C26          O34   1.259       .  A
C26         C666   1.468       .  S
O27          C35   1.257       .  A
O28          C35   1.263       .  A
C29          O36   1.264       .  A
C29          O30   1.258       .  A
C29         C709   1.488       .  S
C31          O33   1.267       .  A
C31          O37   1.261       .  A
C31         C699   1.491       .  S
C35         C659   1.485       .  S
In38         O40   2.220       .  S
In38         O41   2.266       .  S
In38         O49   2.235       .  S
In38         O43   2.271       .  S
In38         O45   2.240       .  S
In38         O46   2.263       .  S
In38         O47   2.222       .  S
In38         O50   2.227       .  S
C39          O45   1.263       .  A
C39          O47   1.259       .  A
C39         C669   1.467       .  S
O40          C48   1.256       .  A
O41          C48   1.264       .  A
C42          O49   1.257       .  A
C42          O43   1.263       .  A
C42         C949   1.478       .  S
C44          O46   1.268       .  A
C44          O50   1.261       .  A
C44         C646   1.486       .  S
C48         C636   1.481       .  S
In51         O53   2.213       .  S
In51         O54   2.299       .  S
In51         O62   2.297       .  S
In51         O56   2.214       .  S
In51         O58   2.225       .  S
In51         O59   2.265       .  S
In51         O60   2.258       .  S
In51         O63   2.234       .  S
C52          O58   1.259       .  A
C52          O60   1.260       .  A
C52         C626   1.479       .  S
O53          C61   1.255       .  A
O54          C61   1.265       .  A
C55          O62   1.267       .  A
C55          O56   1.257       .  A
C55         C829   1.491       .  S
C57          O59   1.265       .  A
C57          O63   1.259       .  A
C57         C649   1.488       .  S
C61         C616   1.486       .  S
In64         O66   2.228       .  S
In64         O67   2.288       .  S
In64         O75   2.281       .  S
In64         O69   2.221       .  S
In64         O71   2.231       .  S
In64         O72   2.288       .  S
In64         O73   2.243       .  S
In64         O76   2.242       .  S
C65          O71   1.258       .  A
C65          O73   1.260       .  A
C65         C689   1.472       .  S
O66          C74   1.256       .  A
O67          C74   1.264       .  A
C68          O75   1.267       .  A
C68          O69   1.257       .  A
C68         C799   1.484       .  S
C70          O72   1.265       .  A
C70          O76   1.259       .  A
C70         C606   1.496       .  S
C74         C596   1.486       .  S
In77         O79   2.252       .  S
In77         O80   2.280       .  S
In77         O88   2.269       .  S
In77         O82   2.263       .  S
In77         O84   2.254       .  S
In77         O85   2.296       .  S
In77         O86   2.223       .  S
In77         O89   2.242       .  S
C78          O84   1.262       .  A
C78          O86   1.260       .  A
C78         C629   1.476       .  S
O79          C87   1.261       .  A
O80          C87   1.263       .  A
C81          O88   1.263       .  A
C81          O82   1.258       .  A
C81        C1019   1.491       .  S
C83          O85   1.265       .  A
C83          O89   1.257       .  A
C83         C609   1.498       .  S
C87         C586   1.495       .  S
In90         O92   2.234       .  S
In90         O93   2.261       .  S
In90        O101   2.235       .  S
In90         O95   2.271       .  S
In90         O97   2.252       .  S
In90         O98   2.243       .  S
In90         O99   2.252       .  S
In90        O102   2.252       .  S
C91          O97   1.261       .  A
C91          O99   1.260       .  A
C91         C576   1.487       .  S
O92         C100   1.257       .  A
O93         C100   1.261       .  A
C94         O101   1.256       .  A
C94          O95   1.262       .  A
C94         C679   1.484       .  S
C96          O98   1.261       .  A
C96         O102   1.263       .  A
C96         C866   1.477       .  S
C100        C566   1.483       .  S
In103       O105   2.235       .  S
In103       O106   2.238       .  S
In103       O114   2.241       .  S
In103       O108   2.251       .  S
In103       O110   2.234       .  S
In103       O111   2.263       .  S
In103       O112   2.265       .  S
In103       O115   2.261       .  S
C104        O110   1.256       .  A
C104        O112   1.263       .  A
C104        C556   1.483       .  S
O105        C113   1.261       .  A
O106        C113   1.261       .  A
C107        O114   1.261       .  A
C107        O108   1.261       .  A
C107        C639   1.480       .  S
C109        O111   1.258       .  A
C109        O115   1.262       .  A
C109        C889   1.489       .  S
C113        C549   1.478       .  S
In116       O118   2.247       .  S
In116       O119   2.246       .  S
In116       O127   2.247       .  S
In116       O121   2.276       .  S
In116       O123   2.251       .  S
In116       O124   2.239       .  S
In116       O125   2.236       .  S
In116       O128   2.275       .  S
C117        O123   1.265       .  A
C117        O125   1.259       .  A
C117        C559   1.484       .  S
O118        C126   1.259       .  A
O119        C126   1.261       .  A
C120        O127   1.258       .  A
C120        O121   1.259       .  A
C120        C599   1.486       .  S
C122        O124   1.259       .  A
C122        O128   1.264       .  A
C122        C536   1.485       .  S
C126        C569   1.483       .  S
In129       O131   2.256       .  S
In129       O132   2.244       .  S
In129       O140   2.245       .  S
In129       O134   2.293       .  S
In129       O136   2.241       .  S
In129       O137   2.237       .  S
In129       O138   2.269       .  S
In129       O141   2.298       .  S
C130        O136   1.259       .  A
C130        O138   1.265       .  A
C130        C526   1.490       .  S
O131        C139   1.260       .  A
O132        C139   1.260       .  A
C133        O140   1.257       .  A
C133        O134   1.263       .  A
C133        C589   1.493       .  S
C135        O137   1.258       .  A
C135        O141   1.264       .  A
C135        C969   1.493       .  S
C139        C519   1.483       .  S
In142       O144   2.234       .  S
In142       O145   2.260       .  S
In142       O153   2.237       .  S
In142       O147   2.294       .  S
In142       O149   2.240       .  S
In142       O150   2.259       .  S
In142       O151   2.276       .  S
In142       O154   2.273       .  S
C143        O149   1.256       .  A
C143        O151   1.263       .  A
C143        C579   1.489       .  S
O144        C152   1.260       .  A
O145        C152   1.263       .  A
C146        O153   1.256       .  A
C146        O147   1.261       .  A
C146        C619   1.491       .  S
C148        O150   1.260       .  A
C148        O154   1.263       .  A
C148        C729   1.493       .  S
C152        C516   1.484       .  S
In155       O157   2.272       .  S
In155       O158   2.244       .  S
In155       O166   2.282       .  S
In155       O160   2.245       .  S
In155       O162   2.250       .  S
In155       O163   2.283       .  S
In155       O164   2.224       .  S
In155       O167   2.229       .  S
C156        O162   1.262       .  A
C156        O164   1.258       .  A
C156        C546   1.478       .  S
O157        C165   1.264       .  A
O158        C165   1.257       .  A
C159        O166   1.266       .  A
C159        O160   1.259       .  A
C159        C759   1.493       .  S
C161        O163   1.262       .  A
C161        O167   1.256       .  A
C161        C656   1.482       .  S
C165        C529   1.490       .  S
C168        C506   1.595       .  S
C168        C539   1.564       .  S
C168        C749   1.587       .  S
C168        C779   1.594       .  S
In169       O171   2.246       .  S
In169       O172   2.252       .  S
In169       O180   2.256       .  S
In169       O174   2.274       .  S
In169       O176   2.229       .  S
In169       O177   2.262       .  S
In169       O178   2.280       .  S
In169       O181   2.275       .  S
C170        O176   1.258       .  A
C170        O178   1.266       .  A
C170        C496   1.489       .  S
O171        C179   1.261       .  A
O172        C179   1.259       .  A
C173        O180   1.263       .  A
C173        O174   1.262       .  A
C173        C479   1.496       .  S
C175        O177   1.256       .  A
C175        O181   1.261       .  A
C175        C919   1.490       .  S
C179        C486   1.483       .  S
In182       O184   2.253       .  S
In182       O185   2.254       .  S
In182       O193   2.247       .  S
In182       O187   2.265       .  S
In182       O189   2.259       .  S
In182       O190   2.237       .  S
In182       O191   2.252       .  S
In182       O194   2.288       .  S
C183        O189   1.264       .  A
C183        O191   1.260       .  A
C183        C499   1.490       .  S
O184        C192   1.259       .  A
O185        C192   1.260       .  A
C186        O193   1.258       .  A
C186        O187   1.261       .  A
C186        C456   1.487       .  S
C188        O190   1.259       .  A
C188        O194   1.264       .  A
C188        C719   1.490       .  S
C192        C466   1.486       .  S
In195       O197   2.253       .  S
In195       O198   2.257       .  S
In195       O206   2.261       .  S
In195       O200   2.275       .  S
In195       O202   2.252       .  S
In195       O203   2.230       .  S
In195       O204   2.277       .  S
In195       O207   2.286       .  S
C196        O202   1.258       .  A
C196        O204   1.263       .  A
C196        C446   1.493       .  S
O197        C205   1.259       .  A
O198        C205   1.260       .  A
C199        O206   1.258       .  A
C199        O200   1.262       .  A
C199        C436   1.492       .  S
C201        O203   1.260       .  A
C201        O207   1.266       .  A
C201        C939   1.496       .  S
C205        C469   1.484       .  S
In208       O210   2.243       .  S
In208       O211   2.250       .  S
In208       O219   2.242       .  S
In208       O213   2.292       .  S
In208       O215   2.270       .  S
In208       O216   2.254       .  S
In208       O217   2.254       .  S
In208       O220   2.282       .  S
C209        O215   1.264       .  A
C209        O217   1.259       .  A
C209        C449   1.492       .  S
O210        C218   1.260       .  A
O211        C218   1.262       .  A
C212        O219   1.256       .  A
C212        O213   1.262       .  A
C212        C419   1.493       .  S
C214        O216   1.259       .  A
C214        O220   1.262       .  A
C214        C839   1.489       .  S
C218        C426   1.481       .  S
In221       O223   2.239       .  S
In221       O224   2.264       .  S
In221       O232   2.246       .  S
In221       O226   2.268       .  S
In221       O228   2.261       .  S
In221       O229   2.255       .  S
In221       O230   2.237       .  S
In221       O233   2.262       .  S
C222        O228   1.262       .  A
C222        O230   1.257       .  A
C222        C406   1.483       .  S
O223        C231   1.259       .  A
O224        C231   1.260       .  A
C225        O232   1.262       .  A
C225        O226   1.262       .  A
C225        C396   1.491       .  S
C227        O229   1.260       .  A
C227        O233   1.263       .  A
C227        C809   1.486       .  S
C231        C489   1.480       .  S
In234       O236   2.246       .  S
In234       O237   2.245       .  S
In234       O245   2.242       .  S
In234       O239   2.282       .  S
In234       O241   2.240       .  S
In234       O242   2.239       .  S
In234       O243   2.266       .  S
In234       O246   2.277       .  S
C235        O241   1.256       .  A
C235        O243   1.263       .  A
C235        C409   1.486       .  S
O236        C244   1.261       .  A
O237        C244   1.260       .  A
C238        O245   1.257       .  A
C238        O239   1.261       .  A
C238        C386   1.488       .  S
C240        O242   1.261       .  A
C240        O246   1.265       .  A
C240       C1009   1.491       .  S
C244        C429   1.482       .  S
In247       O249   2.278       .  S
In247       O250   2.274       .  S
In247       O258   2.283       .  S
In247       O252   2.244       .  S
In247       O254   2.250       .  S
In247       O255   2.242       .  S
In247       O256   2.261       .  S
In247       O259   2.275       .  S
C248        O254   1.258       .  A
C248        O256   1.260       .  A
C248        C366   1.484       .  S
O249        C257   1.258       .  A
O250        C257   1.258       .  A
C251        O258   1.266       .  A
C251        O252   1.261       .  A
C251        C899   1.493       .  S
C253        O255   1.259       .  A
C253        O259   1.265       .  A
C253        C376   1.492       .  S
C257        C439   1.496       .  S
In260       O262   2.247       .  S
In260       O263   2.275       .  S
In260       O271   2.264       .  S
In260       O265   2.271       .  S
In260       O267   2.243       .  S
In260       O268   2.273       .  S
In260       O269   2.236       .  S
In260       O272   2.250       .  S
C261        O267   1.261       .  A
C261        O269   1.260       .  A
C261        C356   1.478       .  S
O262        C270   1.260       .  A
O263        C270   1.263       .  A
C264        O271   1.263       .  A
C264        O265   1.259       .  A
C264        C509   1.493       .  S
C266        O268   1.263       .  A
C266        O272   1.257       .  A
C266        C379   1.491       .  S
C270        C399   1.492       .  S
In273       O275   2.252       .  S
In273       O276   2.276       .  S
In273       O284   2.288       .  S
In273       O278   2.257       .  S
In273       O280   2.237       .  S
In273       O281   2.252       .  S
In273       O282   2.239       .  S
In273       O285   2.289       .  S
C274        O280   1.259       .  A
C274        O282   1.260       .  A
C274        C359   1.477       .  S
O275        C283   1.260       .  A
O276        C283   1.266       .  A
C277        O284   1.265       .  A
C277        O278   1.257       .  A
C277        C879   1.497       .  S
C279        O281   1.254       .  A
C279        O285   1.263       .  A
C279        C346   1.494       .  S
C283        C476   1.495       .  S
In286       O288   2.242       .  S
In286       O289   2.277       .  S
In286       O297   2.269       .  S
In286       O291   2.269       .  S
In286       O293   2.254       .  S
In286       O294   2.278       .  S
In286       O295   2.264       .  S
In286       O298   2.250       .  S
C287        O293   1.258       .  A
C287        O295   1.260       .  A
C287        C336   1.489       .  S
O288        C296   1.261       .  A
O289        C296   1.264       .  A
C290        O297   1.263       .  A
C290        O291   1.259       .  A
C290        C739   1.493       .  S
C292        O294   1.263       .  A
C292        O298   1.258       .  A
C292        C349   1.493       .  S
C296        C416   1.492       .  S
In299       O301   2.272       .  S
In299       O302   2.267       .  S
In299       O310   2.250       .  S
In299       O304   2.287       .  S
In299       O306   2.255       .  S
In299       O307   2.269       .  S
In299       O308   2.278       .  S
In299       O311   2.250       .  S
C300        O306   1.260       .  A
C300        O308   1.264       .  A
C300        C326   1.495       .  S
O301        C309   1.263       .  A
O302        C309   1.261       .  A
C303        O310   1.257       .  A
C303        O304   1.261       .  A
C303        C389   1.489       .  S
C305        O307   1.262       .  A
C305        O311   1.259       .  A
C305        C339   1.490       .  S
C309        C976   1.492       .  S
In312       O314   2.241       .  S
In312       O315   2.284       .  S
In312       O323   2.282       .  S
In312       O317   2.256       .  S
In312       O319   2.256       .  S
In312       O320   2.271       .  S
In312       O321   2.239       .  S
In312       O324   2.269       .  S
C313        O319   1.262       .  A
C313        O321   1.258       .  A
C313        C369   1.484       .  S
O314        C322   1.256       .  A
O315        C322   1.263       .  A
C316        O323   1.266       .  A
C316        O317   1.262       .  A
C316        C769   1.497       .  S
C318        O320   1.262       .  A
C318        O324   1.258       .  A
C318        C329   1.496       .  S
C322        C459   1.487       .  S
C325        C326   1.411   1_556  A
C325        C330   1.403       .  A
C325        F332   1.357       .  S
C326        C327   1.409       .  A
C327        C328   1.407       .  A
C327        F334   1.358       .  S
C328        C329   1.413   1_554  A
C328        F333   1.358       .  S
C329        C330   1.408       .  A
C330        F331   1.357       .  S
C335        C336   1.409       .  A
C335        C340   1.403   1_556  A
C335        F342   1.358       .  S
C336        C337   1.409       .  A
C337        C338   1.400   1_556  A
C337        F344   1.358       .  S
C338        C339   1.410       .  A
C338        F343   1.358       .  S
C339        C340   1.409       .  A
C340        F341   1.357       .  S
C345        C346   1.407       .  A
C345        C350   1.403       .  A
C345        F352   1.357       .  S
C346        C347   1.413   1_554  A
C347        C348   1.404       .  A
C347        F354   1.358       .  S
C348        C349   1.407       .  A
C348        F353   1.358       .  S
C349        C350   1.411   1_556  A
C350        F351   1.358       .  S
C355        C356   1.408   1_554  A
C355        C360   1.397       .  A
C355        F362   1.358   1_554  S
C356        C357   1.407       .  A
C357        C358   1.395   1_556  A
C357        F364   1.358       .  S
C358        C359   1.407       .  A
C358        F363   1.358       .  S
C359        C360   1.407       .  A
C360        F361   1.358       .  S
C365        C366   1.407       .  A
C365        C370   1.399       .  A
C365        F372   1.358       .  S
C366        C367   1.410       .  A
C367        C368   1.400   1_554  A
C367        F374   1.358       .  S
C368        C369   1.407       .  A
C368        F373   1.358       .  S
C369        C370   1.410   1_556  A
C370        F371   1.358       .  S
C375        C376   1.412   1_556  A
C375        C380   1.402       .  A
C375        F382   1.358       .  S
C376        C377   1.408       .  A
C377        C378   1.403       .  A
C377        F384   1.358       .  S
C378        C379   1.412   1_554  A
C378        F383   1.358       .  S
C379        C380   1.406       .  A
C380        F381   1.358       .  S
C385        C386   1.410       .  A
C385        C390   1.407       .  A
C385        F392   1.358       .  S
C386        C387   1.407       .  A
C387        C388   1.400       .  A
C387        F394   1.358       .  S
C388        C389   1.408       .  A
C388        F393   1.358       .  S
C389        C390   1.410       .  A
C390        F391   1.358       .  S
C395        C396   1.411       .  A
C395        C400   1.406   1_545  A
C395        F402   1.358       .  S
C396        C397   1.408       .  A
C397        C398   1.400   1_545  A
C397        F404   1.358       .  S
C398        C399   1.409       .  A
C398        F403   1.358       .  S
C399        C400   1.410       .  A
C400        F401   1.358       .  S
C405        C406   1.405       .  A
C405        C410   1.400       .  A
C405        F412   1.358       .  S
C406        C407   1.410   1_556  A
C407        C408   1.399       .  A
C407        F414   1.358       .  S
C408        C409   1.407       .  A
C408        F413   1.358       .  S
C409        C410   1.412   1_554  A
C410        F411   1.358       .  S
C415        C416   1.411       .  A
C415        C420   1.408       .  A
C415        F422   1.357       .  S
C416        C417   1.408       .  A
C417        C418   1.399       .  A
C417        F424   1.358       .  S
C418        C419   1.410       .  A
C418        F423   1.358       .  S
C419        C420   1.410       .  A
C420        F421   1.358       .  S
C425        C426   1.408       .  A
C425        C430   1.399   1_556  A
C425        F432   1.358       .  S
C426        C427   1.407       .  A
C427        C428   1.398   1_556  A
C427        F434   1.358       .  S
C428        C429   1.408       .  A
C428        F433   1.358       .  S
C429        C430   1.409       .  A
C430        F431   1.358       .  S
C435        C436   1.408       .  A
C435        C440   1.404   1_655  A
C435        F442   1.358       .  S
C436        C437   1.409       .  A
C437        C438   1.405   1_655  A
C437        F444   1.358       .  S
C438        C439   1.410       .  A
C438        F443   1.358       .  S
C439        C440   1.411       .  A
C440        F441   1.357       .  S
C445        C446   1.409       .  A
C445        C450   1.404       .  A
C445        F452   1.358       .  S
C446        C447   1.412   1_554  A
C447        C448   1.403       .  A
C447        F454   1.358       .  S
C448        C449   1.407       .  A
C448        F453   1.358       .  S
C449        C450   1.411   1_556  A
C450        F451   1.358       .  S
C455        C456   1.409       .  A
C455        C460   1.400   1_655  A
C455        F462   1.358       .  S
C456        C457   1.409       .  A
C457        C458   1.404   1_655  A
C457        F464   1.358       .  S
C458        C459   1.408       .  A
C458        F463   1.357       .  S
C459        C460   1.409       .  A
C460        F461   1.358       .  S
C465        C466   1.408       .  A
C465        C470   1.400   1_556  A
C465        F472   1.358       .  S
C466        C467   1.409       .  A
C467        C468   1.400   1_556  A
C467        F474   1.358       .  S
C468        C469   1.408       .  A
C468        F473   1.358       .  S
C469        C470   1.408       .  A
C470        F471   1.358       .  S
C475        C476   1.411   1_545  A
C475        C480   1.404       .  A
C475        F482   1.357   1_545  S
C476        C477   1.409   1_565  A
C477        C478   1.406       .  A
C477        F484   1.358   1_545  S
C478        C479   1.411       .  A
C478        F483   1.357       .  S
C479        C480   1.409       .  A
C480        F481   1.358       .  S
C485        C486   1.407       .  A
C485        C490   1.396       .  A
C485        F492   1.358       .  S
C486        C487   1.411       .  A
C487        C488   1.403   1_554  A
C487        F494   1.358       .  S
C488        C489   1.407       .  A
C488        F493   1.358       .  S
C489        C490   1.406   1_556  A
C490        F491   1.358   1_554  S
C495        C496   1.407       .  A
C495        C500   1.405       .  A
C495        F502   1.358       .  S
C496        C497   1.411   1_554  A
C497        C498   1.399       .  A
C497        F504   1.358       .  S
C498        C499   1.406       .  A
C498        F503   1.358       .  S
C499        C500   1.412   1_556  A
C500        F501   1.358       .  S
C505        C506   1.436       .  A
C505        C510   1.400       .  A
C505        F512   1.353       .  S
C506        C507   1.430       .  A
C507        C508   1.408       .  A
C507        F514   1.359       .  S
C508        C509   1.404       .  A
C508        F513   1.358       .  S
C509        C510   1.397       .  A
C510        F511   1.359       .  S
C515        C516   1.409       .  A
C515        C520   1.396       .  A
C515        F522   1.358       .  S
C516        C517   1.408       .  A
C517        C518   1.402       .  A
C517        F524   1.358       .  S
C518        C519   1.410       .  A
C518        F523   1.358       .  S
C519        C520   1.407       .  A
C520        F521   1.358       .  S
C525        C526   1.412       .  A
C525        C530   1.402       .  A
C525        F532   1.358       .  S
C526        C527   1.407       .  A
C527        C528   1.402       .  A
C527        F534   1.358       .  S
C528        C529   1.412       .  A
C528        F533   1.358       .  S
C529        C530   1.406       .  A
C530        F531   1.358       .  S
C535        C536   1.404       .  A
C535        C540   1.405       .  A
C535        F542   1.358       .  S
C536        C537   1.404       .  A
C537        C538   1.398       .  A
C537        F544   1.358       .  S
C538        C539   1.419       .  A
C538        F543   1.357       .  S
C539        C540   1.424       .  A
C540        F541   1.357       .  S
C545        C546   1.407       .  A
C545        C550   1.397       .  A
C545        F552   1.358       .  S
C546        C547   1.408       .  A
C547        C548   1.395       .  A
C547        F554   1.358       .  S
C548        C549   1.407       .  A
C548        F553   1.358       .  S
C549        C550   1.408       .  A
C550        F551   1.358       .  S
C555        C556   1.405       .  A
C555        C560   1.400       .  A
C555        F562   1.358       .  S
C556        C557   1.410       .  A
C557        C558   1.398       .  A
C557        F564   1.358       .  S
C558        C559   1.406       .  A
C558        F563   1.358       .  S
C559        C560   1.411       .  A
C560        F561   1.358       .  S
C565        C566   1.408       .  A
C565        C570   1.400       .  A
C565        F572   1.358       .  S
C566        C567   1.409       .  A
C567        C568   1.396       .  A
C567        F574   1.358       .  S
C568        C569   1.407       .  A
C568        F573   1.358       .  S
C569        C570   1.410       .  A
C570        F571   1.358       .  S
C575        C576   1.410       .  A
C575        C580   1.403       .  A
C575        F582   1.358       .  S
C576        C577   1.407       .  A
C577        C578   1.399       .  A
C577        F584   1.358       .  S
C578        C579   1.411       .  A
C578        F583   1.358       .  S
C579        C580   1.408       .  A
C580        F581   1.357       .  S
C585        C586   1.412       .  A
C585        C590   1.409       .  A
C585        F592   1.357       .  S
C586        C587   1.409       .  A
C587        C588   1.401       .  A
C587        F594   1.358       .  S
C588        C589   1.409       .  A
C588        F593   1.358       .  S
C589        C590   1.410       .  A
C590        F591   1.358       .  S
C595        C596   1.408       .  A
C595        C600   1.406   1_545  A
C595        F602   1.358       .  S
C596        C597   1.408       .  A
C597        C598   1.397   1_545  A
C597        F604   1.358       .  S
C598        C599   1.406       .  A
C598        F603   1.358       .  S
C599        C600   1.410       .  A
C600        F601   1.358       .  S
C605        C606   1.409       .  A
C605        C610   1.400       .  A
C605        F612   1.358       .  S
C606        C607   1.411       .  A
C607        C608   1.410       .  A
C607        F614   1.357       .  S
C608        C609   1.411       .  A
C608        F613   1.357       .  S
C609        C610   1.411       .  A
C610        F611   1.358       .  S
C615        C616   1.406       .  A
C615        C620   1.395       .  A
C615        F622   1.358       .  S
C616        C617   1.409       .  A
C617        C618   1.410       .  A
C617        F624   1.358       .  S
C618        C619   1.413       .  A
C618        F623   1.358       .  S
C619        C620   1.408       .  A
C620        F621   1.358       .  S
C625        C626   1.406       .  A
C625        C630   1.392       .  A
C625        F632   1.358       .  S
C626        C627   1.409       .  A
C627        C628   1.402       .  A
C627        F634   1.358       .  S
C628        C629   1.407       .  A
C628        F633   1.358       .  S
C629        C630   1.406       .  A
C630        F631   1.358       .  S
C635        C636   1.407       .  A
C635        C640   1.401   1_655  A
C635        F642   1.358       .  S
C636        C637   1.409       .  A
C637        C638   1.397   1_655  A
C637        F644   1.358       .  S
C638        C639   1.406       .  A
C638        F643   1.358       .  S
C639        C640   1.408       .  A
C640        F641   1.358       .  S
C645        C646   1.407       .  A
C645        C650   1.404       .  A
C645        F652   1.357       .  S
C646        C647   1.410       .  A
C647        C648   1.398       .  A
C647        F654   1.359       .  S
C648        C649   1.409       .  A
C648        F653   1.358       .  S
C649        C650   1.410       .  A
C650        F651   1.357       .  S
C655        C656   1.409       .  A
C655        C660   1.407   1_455  A
C655        F662   1.358       .  S
C656        C657   1.405       .  A
C657        C658   1.396   1_455  A
C657        F664   1.358       .  S
C658        C659   1.407       .  A
C658        F663   1.358       .  S
C659        C660   1.409       .  A
C660        F661   1.358       .  S
C665        C666   1.403       .  A
C665        C670   1.394       .  A
C665        F672   1.358       .  S
C666        C667   1.407       .  A
C667        C668   1.396       .  A
C667        F674   1.358       .  S
C668        C669   1.403       .  A
C668        F673   1.358       .  S
C669        C670   1.406       .  A
C670        F671   1.358       .  S
C675        C676   1.409       .  A
C675        C680   1.398   1_545  A
C675        F682   1.358       .  S
C676        C677   1.409       .  A
C677        C678   1.402   1_545  A
C677        F684   1.357       .  S
C678        C679   1.408       .  A
C678        F683   1.357       .  S
C679        C680   1.408       .  A
C680        F681   1.358       .  S
C685        C686   1.404       .  A
C685        C690   1.395       .  A
C685        F692   1.358       .  S
C686        C687   1.403       .  A
C687        C688   1.395       .  A
C687        F694   1.358       .  S
C688        C689   1.407       .  A
C688        F693   1.358       .  S
C689        C690   1.408       .  A
C690        F691   1.358       .  S
C695        C696   1.409       .  A
C695        C700   1.399       .  A
C695        F702   1.358       .  S
C696        C697   1.409       .  A
C697        C698   1.405       .  A
C697        F704   1.357       .  S
C698        C699   1.409       .  A
C698        F703   1.357       .  S
C699        C700   1.410       .  A
C700        F701   1.358       .  S
C705        C706   1.418       .  A
C705        C710   1.402       .  A
C705        F712   1.355       .  S
C706        C707   1.428       .  A
C707        C708   1.403       .  A
C707        F714   1.357       .  S
C708        C709   1.401       .  A
C708        F713   1.358       .  S
C709        C710   1.405       .  A
C710        F711   1.358       .  S
C715        C716   1.426       .  A
C715        C720   1.396       .  A
C715        F722   1.356       .  S
C716        C717   1.422       .  A
C717        C718   1.408       .  A
C717        F724   1.355       .  S
C718        C719   1.405       .  A
C718        F723   1.357       .  S
C719        C720   1.402       .  A
C720        F721   1.359       .  S
C725        C726   1.422       .  A
C725        C730   1.404       .  A
C725        F732   1.358       .  S
C726        C727   1.423       .  A
C727        C728   1.404       .  A
C727        F734   1.357       .  S
C728        C729   1.405       .  A
C728        F733   1.358       .  S
C729        C730   1.407       .  A
C730        F731   1.358       .  S
C735        C736   1.429       .  A
C735        C740   1.407       .  A
C735        F742   1.359       .  S
C736        C737   1.436       .  A
C737        C738   1.401       .  A
C737        F744   1.354       .  S
C738        C739   1.398       .  A
C738        F743   1.359       .  S
C739        C740   1.403       .  A
C740        F741   1.358       .  S
C745        C746   1.422       .  A
C745        C750   1.414       .  A
C745        F752   1.356       .  S
C746        C747   1.417       .  A
C747        C748   1.394       .  A
C747        F754   1.353       .  S
C748        C749   1.413       .  A
C748        F753   1.354       .  S
C749        C750   1.419       .  A
C750        F751   1.356       .  S
C755        C756   1.425       .  A
C755        C760   1.406       .  A
C755        F762   1.355       .  S
C756        C757   1.422       .  A
C757        C758   1.403       .  A
C757        F764   1.355       .  S
C758        C759   1.406       .  A
C758        F763   1.358       .  S
C759        C760   1.403       .  A
C760        F761   1.358       .  S
C765        C766   1.424       .  A
C765        C770   1.409       .  A
C765        F772   1.354       .  S
C766        C767   1.424       .  A
C767        C768   1.404       .  A
C767        F774   1.355       .  S
C768        C769   1.404       .  A
C768        F773   1.358       .  S
C769        C770   1.405       .  A
C770        F771   1.358       .  S
C775        C776   1.422       .  A
C775        C780   1.407       .  A
C775        F782   1.355       .  S
C776        C777   1.418       .  A
C777        C778   1.397       .  A
C777        F784   1.354       .  S
C778        C779   1.422       .  A
C778        F783   1.352       .  S
C779        C780   1.418       .  A
C780        F781   1.353       .  S
C785        C786   1.422       .  A
C785        C790   1.400       .  A
C785        F792   1.354       .  S
C786        C787   1.419       .  A
C787        C788   1.407       .  A
C787        F794   1.353       .  S
C788        C789   1.419       .  A
C788        F793   1.355       .  S
C789        C790   1.422       .  A
C790        F791   1.355       .  S
C795        C796   1.418       .  A
C795        C800   1.398       .  A
C795        F802   1.358       .  S
C796        C797   1.425       .  A
C797        C798   1.403       .  A
C797        F804   1.357       .  S
C798        C799   1.402       .  A
C798        F803   1.358       .  S
C799        C800   1.406       .  A
C800        F801   1.358       .  S
C805        C806   1.434       .  A
C805        C810   1.400       .  A
C805        F812   1.354       .  S
C806        C807   1.428       .  A
C807        C808   1.403       .  A
C807        F814   1.359       .  S
C808        C809   1.402       .  A
C808        F813   1.358       .  S
C809        C810   1.398       .  A
C810        F811   1.359       .  S
C815        C816   1.413       .  A
C815        C820   1.394       .  A
C815        F822   1.354       .  S
C816        C817   1.419       .  A
C817        C818   1.409       .  A
C817        F824   1.355       .  S
C818        C819   1.421       .  A
C818        F823   1.354       .  S
C819        C820   1.420       .  A
C820        F821   1.357       .  S
C825        C826   1.422       .  A
C825        C830   1.410       .  A
C825        F832   1.355       .  S
C826        C827   1.423       .  A
C827        C828   1.394       .  A
C827        F834   1.356       .  S
C828        C829   1.404       .  A
C828        F833   1.359       .  S
C829        C830   1.405       .  A
C830        F831   1.357       .  S
C835        C836   1.426       .  A
C835        C840   1.407       .  A
C835        F842   1.356       .  S
C836        C837   1.420       .  A
C837        C838   1.401       .  A
C837        F844   1.355       .  S
C838        C839   1.402       .  A
C838        F843   1.358       .  S
C839        C840   1.403       .  A
C840        F841   1.358       .  S
C845        C846   1.419       .  A
C845        C850   1.408       .  A
C845        F852   1.355       .  S
C846        C847   1.416       .  A
C847        C848   1.391       .  A
C847        F854   1.352       .  S
C848        C849   1.418       .  A
C848        F853   1.357       .  S
C849        C850   1.423       .  A
C850        F851   1.354       .  S
C855        C856   1.420       .  A
C855        C860   1.412       .  A
C855        F862   1.355       .  S
C856        C857   1.419       .  A
C857        C858   1.393       .  A
C857        F864   1.357       .  S
C858        C859   1.417       .  A
C858        F863   1.357       .  S
C859        C860   1.424       .  A
C860        F861   1.355       .  S
C865        C866   1.401       .  A
C865        C870   1.400       .  A
C865        F872   1.358       .  S
C866        C867   1.402       .  A
C867        C868   1.400       .  A
C867        F874   1.358       .  S
C868        C869   1.421       .  A
C868        F873   1.358       .  S
C869        C870   1.424       .  A
C870        F871   1.357       .  S
C875        C876   1.427       .  A
C875        C880   1.408       .  A
C875        F882   1.359       .  S
C876        C877   1.441       .  A
C877        C878   1.404       .  A
C877        F884   1.355       .  S
C878        C879   1.397       .  A
C878        F883   1.359       .  S
C879        C880   1.406       .  A
C880        F881   1.358       .  S
C885        C886   1.432       .  A
C885        C890   1.406       .  A
C885        F892   1.359       .  S
C886        C887   1.435       .  A
C887        C888   1.400       .  A
C887        F894   1.352       .  S
C888        C889   1.397       .  A
C888        F893   1.359       .  S
C889        C890   1.403       .  A
C890        F891   1.358       .  S
C895        C896   1.424       .  A
C895        C900   1.409       .  A
C895        F902   1.358       .  S
C896        C897   1.422       .  A
C897        C898   1.399       .  A
C897        F904   1.357       .  S
C898        C899   1.404       .  A
C898        F903   1.358       .  S
C899        C900   1.407       .  A
C900        F901   1.357       .  S
C905        C906   1.426       .  A
C905        C910   1.407       .  A
C905        F912   1.354       .  S
C906        C907   1.417       .  A
C907        C908   1.406       .  A
C907        F914   1.354       .  S
C908        C909   1.430       .  A
C908        F913   1.356       .  S
C909        C910   1.413       .  A
C910        F911   1.353       .  S
C915        C916   1.434       .  A
C915        C920   1.401       .  A
C915        F922   1.353       .  S
C916        C917   1.426       .  A
C917        C918   1.404       .  A
C917        F924   1.359       .  S
C918        C919   1.404       .  A
C918        F923   1.358       .  S
C919        C920   1.399       .  A
C920        F921   1.359       .  S
C925        C926   1.399       .  A
C925        C930   1.399       .  A
C925        F932   1.358       .  S
C926        C927   1.404       .  A
C927        C928   1.400       .  A
C927        F934   1.358       .  S
C928        C929   1.421       .  A
C928        F933   1.358       .  S
C929        C930   1.425       .  A
C930        F931   1.355       .  S
C935        C936   1.429       .  A
C935        C940   1.399       .  A
C935        F942   1.348       .  S
C936        C937   1.428       .  A
C937        C938   1.407       .  A
C937        F944   1.357       .  S
C938        C939   1.402       .  A
C938        F943   1.358       .  S
C939        C940   1.403       .  A
C940        F941   1.359       .  S
C945        C946   1.434       .  A
C945        C950   1.402       .  A
C945        F952   1.347       .  S
C946        C947   1.427       .  A
C947        C948   1.399       .  A
C947        F954   1.356       .  S
C948        C949   1.397       .  A
C948        F953   1.359       .  S
C949        C950   1.395       .  A
C950        F951   1.359       .  S
C955        C956   1.419       .  A
C955        C960   1.387       .  A
C955        F962   1.347       .  S
C956        C957   1.412       .  A
C957        C958   1.415       .  A
C957        F964   1.356       .  S
C958        C959   1.425       .  A
C958        F963   1.357       .  S
C959        C960   1.407       .  A
C960        F961   1.351       .  S
C965        C966   1.421       .  A
C965        C970   1.411       .  A
C965        F972   1.356       .  S
C966        C967   1.428       .  A
C967        C968   1.396       .  A
C967        F974   1.357       .  S
C968        C969   1.402       .  A
C968        F973   1.359       .  S
C969        C970   1.406       .  A
C970        F971   1.357       .  S
C975        C976   1.406       .  A
C975        C980   1.407       .  A
C975        F982   1.357       .  S
C976        C977   1.402       .  A
C977        C978   1.402       .  A
C977        F984   1.358       .  S
C978        C979   1.429       .  A
C978        F983   1.357       .  S
C979        C980   1.418       .  A
C980        F981   1.356       .  S
C985        C986   1.419       .  A
C985        C990   1.410       .  A
C985        F992   1.353       .  S
C986        C987   1.420       .  A
C987        C988   1.391       .  A
C987        F994   1.358       .  S
C988        C989   1.413       .  A
C988        F993   1.352       .  S
C989        C990   1.423       .  A
C990        F991   1.356       .  S
C995        C996   1.421       .  A
C995       C1000   1.412       .  A
C995       F1002   1.355       .  S
C996        C997   1.416       .  A
C997        C998   1.388       .  A
C997       F1004   1.353       .  S
C998        C999   1.419       .  A
C998       F1003   1.358       .  S
C999       C1000   1.420       .  A
C1000      F1001   1.353       .  S
C1005      C1006   1.423       .  A
C1005      C1010   1.408       .  A
C1005      F1012   1.357       .  S
C1006      C1007   1.423       .  A
C1007      C1008   1.396       .  A
C1007      F1014   1.355       .  S
C1008      C1009   1.403       .  A
C1008      F1013   1.358       .  S
C1009      C1010   1.406       .  A
C1010      F1011   1.357       .  S
C1015      C1016   1.431       .  A
C1015      C1020   1.400       .  A
C1015      F1022   1.352       .  S
C1016      C1017   1.428       .  A
C1017      C1018   1.405       .  A
C1017      F1024   1.358       .  S
C1018      C1019   1.404       .  A
C1018      F1023   1.358       .  S
C1019      C1020   1.399       .  A
C1020      F1021   1.358       .  S
C1025      C1026   1.425       .  A
C1025      C1030   1.407       .  A
C1025      F1032   1.356       .  S
C1026      C1027   1.417       .  A
C1027      C1028   1.407       .  A
C1027      F1034   1.355       .  S
C1028      C1029   1.426       .  A
C1028      F1033   1.356       .  S
C1029      C1030   1.415       .  A
C1030      F1031   1.354       .  S
C1035      C1036   1.410       .  A
C1035      C1040   1.417       .  A
C1035      F1042   1.357       .  S
C1036      C1037   1.418       .  A
C1037      C1038   1.385       .  A
C1037      F1044   1.346       .  S
C1038      C1039   1.405       .  A
C1038      F1043   1.350       .  S
C1039      C1040   1.429       .  A
C1040      F1041   1.357       .  S
