geometry optimzed in LAMMPS
_audit_creation_date              2020-11-30 
_audit_creation_method            'lammps2cif' 
_symmetry_space_group_name_H-M    'P1' 
_symmetry_Int_Tables_number       1 
_symmetry_cell_setting            triclinic 
loop_ 
_symmetry_equiv_pos_as_xyz 
  x,y,z 
_cell_length_a                    40.31364915089659 
_cell_length_b                    40.73600802805741 
_cell_length_c                    41.50032298818833 
_cell_angle_alpha                 89.80422841433797 
_cell_angle_beta                  90.20052519450044 
_cell_angle_gamma                 89.53325107622847 
loop_ 
_atom_site_label 
_atom_site_type_symbol 
_atom_site_fract_x 
_atom_site_fract_y 
_atom_site_fract_z 
_atom_site_charge 
C1          C  0.85683913  0.35441126  0.86069778    -0.03090
C2          C  0.34957832  0.85146731  0.85547132    -0.03090
C3          C  0.34943015  0.85458550  0.18493900    -0.03090
C4          C  0.68729306  0.84827117  0.85164378    -0.03090
C5          C  0.34992445  0.18035323  0.85122917    -0.03090
C6          C  0.85149857  0.68798043  0.85388149    -0.03090
C7          C  0.19151854  0.35445326  0.85448536    -0.03090
C8          C  0.84567961  0.35619629  0.18115410    -0.03090
C9          C  0.86027446  0.85819661  0.67380067    -0.03090
C10         C  0.18471500  0.85577896  0.35311717    -0.03090
C11         C  0.85322402  0.68608565  0.18516973    -0.03090
C12         C  0.18323748  0.68132113  0.86107837    -0.03090
C13         C  0.68201753  0.18130761  0.84800025    -0.03090
C14         C  0.69109168  0.85073695  0.18710785    -0.03090
C15         C  0.85482348  0.18079619  0.68831491    -0.03090
C16         C  0.18372220  0.84757186  0.68077648    -0.03090
O17         O  0.48720612  0.81121689  0.25887083    -0.72380
O18         O  0.54979069  0.75895162  0.30621864    -0.72600
O19         O  0.55400444  0.80791396  0.26120747    -0.72460
O20         O  0.48322007  0.76283543  0.30354641    -0.72470
O21         O  0.48414274  0.72584844  0.26610117    -0.72430
O22         O  0.55223016  0.77240269  0.22253853    -0.72450
O23         O  0.55060233  0.72364338  0.26721763    -0.72390
O24         O  0.48560977  0.77401245  0.22184116    -0.72580
V25         V  0.51863938  0.78456537  0.28175972     1.35240
V26         V  0.51826332  0.74971353  0.24519215     1.35170
C27         C  0.47529589  0.80132959  0.23232617     0.76860
C28         C  0.56047618  0.73200129  0.29497082     0.76910
C29         C  0.56456350  0.79842497  0.23399482     0.76780
C30         C  0.47146825  0.73668138  0.29183394     0.76740
O31         O  0.55106389  0.80661485  0.78183540    -0.72380
O32         O  0.48370599  0.76347502  0.73359476    -0.72600
O33         O  0.48444245  0.80650805  0.78273513    -0.72460
O34         O  0.55009926  0.76374400  0.73208497    -0.72470
O35         O  0.55242585  0.72346724  0.76629992    -0.72430
O36         O  0.48463439  0.76517767  0.81570057    -0.72450
O37         O  0.48635254  0.72247159  0.76690336    -0.72390
O38         O  0.55083763  0.76616092  0.81606563    -0.72580
V39         V  0.51738767  0.78435260  0.75818931     1.35240
V40         V  0.51858457  0.74519217  0.79062489     1.35170
C41         C  0.56251077  0.79333579  0.80719164     0.76860
C42         C  0.47358599  0.73543106  0.74221084     0.76910
C43         C  0.47284782  0.79290505  0.80765076     0.76780
C44         C  0.56226031  0.73613527  0.74012957     0.76740
O45         O  0.81339260  0.26049961  0.49061959    -0.72380
O46         O  0.76710017  0.30810876  0.55626437    -0.72600
O47         O  0.81219335  0.25846738  0.55532295    -0.72460
O48         O  0.76903957  0.31062310  0.49133541    -0.72470
O49         O  0.72966959  0.27499513  0.48751568    -0.72430
O50         O  0.77095536  0.22445215  0.55446566    -0.72450
O51         O  0.72647193  0.27389366  0.55230414    -0.72390
O52         O  0.77389562  0.22453690  0.48987038    -0.72580
V53         V  0.78967143  0.28375737  0.52333186     1.35240
V54         V  0.75105429  0.25013715  0.52107652     1.35170
C55         C  0.80138706  0.23431756  0.47917836     0.76860
C56         C  0.73859447  0.29909264  0.56544030     0.76910
C57         C  0.79856362  0.23301314  0.56629737     0.76780
C58         C  0.74249266  0.30160072  0.47783638     0.76740
C59         C  0.68792960  0.18369077  0.18047668    -0.03090
C60         C  0.68951017  0.35235118  0.35492907    -0.03090
O61         O  0.76667858  0.48680983  0.30698226    -0.72380
O62         O  0.80746592  0.55660501  0.25939290    -0.72600
O63         O  0.76474281  0.55282796  0.31017677    -0.72460
O64         O  0.81003647  0.49084282  0.25701695    -0.72470
O65         O  0.76866130  0.49196021  0.22357250    -0.72430
O66         O  0.72315074  0.55355773  0.27700598    -0.72450
O67         O  0.76571858  0.55717953  0.22644835    -0.72390
O68         O  0.72575067  0.48773876  0.27286690    -0.72580
V69         V  0.78644142  0.52189017  0.28281527     1.35240
V70         V  0.74663043  0.52266872  0.25071167     1.35170
C71         C  0.73912218  0.47525612  0.29765687     0.76860
C72         C  0.79378321  0.56821563  0.23412500     0.76910
C73         C  0.73586804  0.56321409  0.30327941     0.76780
C74         C  0.79721788  0.48095383  0.23099729     0.76740
C75         C  0.67920935  0.68186905  0.35920542    -0.03090
C76         C  0.76976262  0.76389420  0.27831646    -0.03090
O77         O  0.76292720  0.81213602  0.48827491    -0.72380
O78         O  0.72232007  0.75998590  0.55401060    -0.72600
O79         O  0.76591289  0.80997126  0.55293132    -0.72460
O80         O  0.71837533  0.76298968  0.48991510    -0.72470
O81         O  0.75813455  0.72698773  0.48614789    -0.72430
O82         O  0.80707894  0.77547933  0.54980435    -0.72450
O83         O  0.76309067  0.72509720  0.55088943    -0.72390
O84         O  0.80312417  0.77673484  0.48513165    -0.72580
V85         V  0.74324735  0.78555949  0.52121992     1.35240
V86         V  0.78209675  0.75168679  0.51807729     1.35170
C87         C  0.79021967  0.80348341  0.47557367     0.76860
C88         C  0.73560190  0.73322684  0.56326888     0.76910
C89         C  0.79459989  0.80134445  0.56196161     0.76780
C90         C  0.72973557  0.73725054  0.47712294     0.76740
C91         C  0.68607559  0.68711351  0.68538660    -0.03090
C92         C  0.77765932  0.77393386  0.76033272    -0.03090
O93         O  0.77689467  0.55382321  0.80698208    -0.72380
O94         O  0.73199756  0.48378621  0.76368174    -0.72600
O95         O  0.77782767  0.48806603  0.81058575    -0.72460
O96         O  0.72939994  0.54940437  0.76108587    -0.72470
O97         O  0.76862834  0.55103962  0.72538952    -0.72430
O98         O  0.81581560  0.48464350  0.77376437    -0.72450
O99         O  0.76966793  0.48479400  0.72655082    -0.72390
O100        O  0.81608056  0.55109633  0.77141678    -0.72580
V101        V  0.75481798  0.51877935  0.78486578     1.35240
V102        V  0.79184039  0.51789703  0.74994577     1.35170
C103        C  0.80425337  0.56458548  0.79622203     0.76860
C104        C  0.74358135  0.47220748  0.73761717     0.76910
C105        C  0.80402914  0.47476260  0.80040870     0.76780
C106        C  0.74088940  0.56162142  0.73562408     0.76740
C107        C  0.68525589  0.34984943  0.68710979    -0.03090
C108        C  0.77572698  0.26753607  0.77419201    -0.03090
O109        O  0.55066364  0.27610037  0.72890286    -0.72380
O110        O  0.48132496  0.22824760  0.76967647    -0.72600
O111        O  0.48467047  0.27515468  0.72408148    -0.72460
O112        O  0.54674180  0.22811760  0.77338239    -0.72470
O113        O  0.54646001  0.26534456  0.81066097    -0.72430
O114        O  0.47972485  0.31175904  0.76150689    -0.72450
O115        O  0.47979732  0.26426542  0.80797612    -0.72390
O116        O  0.54642958  0.31348249  0.76590172    -0.72580
V117        V  0.51573030  0.25269937  0.74978441     1.35240
V118        V  0.51298678  0.28810765  0.78583033     1.35170
C119        C  0.56058665  0.30288230  0.74088986     0.76860
C120        C  0.46959141  0.23753982  0.79648907     0.76910
C121        C  0.47127091  0.30116275  0.73387393     0.76780
C122        C  0.55836194  0.23882304  0.79940938     0.76740
C123        C  0.18592165  0.18915166  0.68347966    -0.03090
C124        C  0.35343570  0.35984148  0.67849530    -0.03090
O125        O  0.31063028  0.55856184  0.76236960    -0.72380
O126        O  0.26600866  0.49139896  0.81037491    -0.72600
O127        O  0.31338410  0.49246288  0.76427566    -0.72460
O128        O  0.26350347  0.55727796  0.80879501    -0.72470
O129        O  0.22531677  0.55569575  0.77204850    -0.72430
O130        O  0.27508247  0.49007742  0.72753602    -0.72450
O131        O  0.22778756  0.49036163  0.77342584    -0.72390
O132        O  0.27228553  0.55555799  0.72577955    -0.72580
V133        V  0.28769241  0.52495627  0.78576276     1.35240
V134        V  0.25092922  0.52302784  0.75041441     1.35170
C135        C  0.29868061  0.56856313  0.73574650     0.76860
C136        C  0.23933631  0.47923286  0.79961115     0.76910
C137        C  0.30260799  0.47976684  0.73857744     0.76780
C138        C  0.23550442  0.56707627  0.79858951     0.76740
C139        C  0.35173172  0.68806667  0.68202091    -0.03090
C140        C  0.26614631  0.76318476  0.77284960    -0.03090
O141        O  0.26797991  0.81347419  0.48627658    -0.72380
O142        O  0.31177440  0.76010750  0.54987622    -0.72600
O143        O  0.31552798  0.76573617  0.48593713    -0.72460
O144        O  0.26421968  0.80872140  0.55048718    -0.72470
O145        O  0.22534813  0.77278506  0.54374912    -0.72430
O146        O  0.27842114  0.72765180  0.48218682    -0.72450
O147        O  0.27227215  0.72440876  0.54584640    -0.72390
O148        O  0.23120165  0.77518290  0.48047466    -0.72580
V149        V  0.28916187  0.78636358  0.51807525     1.35240
V150        V  0.25256702  0.75079043  0.51318790     1.35170
C151        C  0.24199233  0.80304304  0.47265301     0.76860
C152        C  0.29949708  0.73283887  0.55834434     0.76910
C153        C  0.30634365  0.73879147  0.47385333     0.76780
C154        C  0.23575283  0.79828617  0.55781036     0.76740
C155        C  0.18410414  0.68370225  0.18205821    -0.03090
C156        C  0.35026689  0.68549424  0.35244209    -0.03090
C157        C  0.36075932  0.35706142  0.35941445    -0.03090
O158        O  0.27005156  0.54977200  0.31072622    -0.72380
O159        O  0.22483481  0.48441172  0.26412035    -0.72600
O160        O  0.27106758  0.48351455  0.31122111    -0.72460
O161        O  0.22482275  0.55020068  0.26271083    -0.72470
O162        O  0.26295928  0.54689108  0.22597925    -0.72430
O163        O  0.31099832  0.48618643  0.27657203    -0.72450
O164        O  0.26494601  0.48137340  0.22952542    -0.72390
O165        O  0.30823337  0.55186240  0.27414817    -0.72580
V166        V  0.24842651  0.51694362  0.28653135     1.35240
V167        V  0.28604991  0.51656928  0.25225551     1.35170
C168        C  0.29612529  0.56289617  0.30024619     0.76860
C169        C  0.23713077  0.47111805  0.23947074     0.76910
C170        C  0.29923950  0.47340906  0.30167159     0.76780
C171        C  0.23642480  0.55974357  0.23591725     0.76740
C172        C  0.26580498  0.77036298  0.26472899    -0.03090
O173        O  0.98644200  0.76996200  0.31557568    -0.72380
O174        O  0.05330039  0.72881303  0.26498668    -0.72600
O175        O  0.05274697  0.77187560  0.31379048    -0.72460
O176        O  0.98712351  0.72678097  0.26644108    -0.72470
O177        O  0.98472125  0.76640675  0.23144267    -0.72430
O178        O  0.05015405  0.81270060  0.28041980    -0.72450
O179        O  0.05153034  0.76902853  0.23085517    -0.72390
O180        O  0.98325869  0.81002975  0.28121721    -0.72580
V181        V  0.01983295  0.75021025  0.28946719     1.35240
V182        V  0.01745256  0.78884706  0.25658383     1.35170
C183        C  0.97326994  0.79698182  0.30723232     0.76860
C184        C  0.06398280  0.74160702  0.23923472     0.76910
C185        C  0.06264491  0.80001103  0.30569729     0.76780
C186        C  0.97492190  0.73843709  0.24069003     0.76740
O187        O  0.31078558  0.78210798  0.05254366    -0.72380
O188        O  0.27017658  0.72864405  0.98883149    -0.72600
O189        O  0.30978357  0.78144855  0.98777590    -0.72460
O190        O  0.27079740  0.72896773  0.05312315    -0.72470
O191        O  0.22747394  0.76085085  0.05367140    -0.72430
O192        O  0.26582114  0.81251961  0.98707721    -0.72450
O193        O  0.22596352  0.75949854  0.98951483    -0.72390
O194        O  0.26745529  0.81407287  0.05170909    -0.72580
V195        V  0.28954143  0.75591004  0.02059244     1.35240
V196        V  0.24761651  0.78624929  0.02052600     1.35170
C197        C  0.29578462  0.80714364  0.06326546     0.76860
C198        C  0.24110309  0.73464360  0.97868439     0.76910
C199        C  0.29412151  0.80558435  0.97575548     0.76780
C200        C  0.24241334  0.73563604  0.06436704     0.76740
C201        C  0.27214754  0.27264190  0.76603908    -0.03090
O202        O  0.31083444  0.98478254  0.77160708    -0.72380
O203        O  0.26524931  0.05034853  0.72405606    -0.72600
O204        O  0.30863117  0.05055850  0.77369836    -0.72460
O205        O  0.26663284  0.98391663  0.72313519    -0.72470
O206        O  0.22597570  0.98402207  0.75719187    -0.72430
O207        O  0.26825388  0.04789757  0.80795673    -0.72450
O208        O  0.22479041  0.05022972  0.75845413    -0.72390
O209        O  0.27031721  0.98228184  0.80582774    -0.72580
V210        V  0.28698741  0.01743163  0.74871055     1.35240
V211        V  0.24805186  0.01609627  0.78160223     1.35170
C212        C  0.29866290  0.97227962  0.79670528     0.76860
C213        C  0.23805459  0.06242054  0.73349146     0.76910
C214        C  0.29535008  0.06048774  0.79966128     0.76780
C215        C  0.23916925  0.97211617  0.73224116     0.76740
O216        O  0.98732246  0.27630429  0.81305128    -0.72380
O217        O  0.05403798  0.22689108  0.76975194    -0.72600
O218        O  0.05426386  0.27462486  0.81516054    -0.72460
O219        O  0.98779002  0.22906106  0.76750219    -0.72470
O220        O  0.98658634  0.26769253  0.73156339    -0.72430
O221        O  0.05811084  0.30904418  0.77534938    -0.72450
O222        O  0.05292398  0.26177584  0.73015949    -0.72390
O223        O  0.99155140  0.31488198  0.77725065    -0.72580
V224        V  0.02081864  0.25242074  0.79066243     1.35240
V225        V  0.02227329  0.28774922  0.75436633     1.35170
C226        C  0.97874841  0.30454737  0.80321648     0.76860
C227        C  0.06407047  0.23519545  0.74205343     0.76910
C228        C  0.06824081  0.29933155  0.80274319     0.76780
C229        C  0.97581257  0.24039273  0.74136070     0.76740
O230        O  0.26786551  0.31308145  0.48457156    -0.72380
O231        O  0.22060198  0.26716395  0.54930276    -0.72600
O232        O  0.26817454  0.31287993  0.54923743    -0.72460
O233        O  0.21989830  0.26757487  0.48504062    -0.72470
O234        O  0.25756225  0.22929729  0.48425566    -0.72430
O235        O  0.30570279  0.27445022  0.55031616    -0.72450
O236        O  0.25757632  0.22825240  0.54907441    -0.72390
O237        O  0.30601165  0.27521303  0.48492230    -0.72580
V238        V  0.24499215  0.28942109  0.51703543     1.35240
V239        V  0.28109943  0.25253140  0.51708566     1.35170
C240        C  0.29477303  0.30189438  0.47332211     0.76860
C241        C  0.23069614  0.23975754  0.56015246     0.76910
C242        C  0.29449157  0.30124931  0.56152964     0.76780
C243        C  0.23000611  0.24046527  0.47395432     0.76740
C244        C  0.77342429  0.26432882  0.26896752    -0.03090
O245        O  0.81424321  0.98885236  0.27586614    -0.72380
O246        O  0.77061140  0.05203237  0.22419698    -0.72600
O247        O  0.81608336  0.05430258  0.27239546    -0.72460
O248        O  0.76791770  0.98632680  0.22936761    -0.72470
O249        O  0.72935345  0.99027953  0.26538310    -0.72430
O250        O  0.77693615  0.05801000  0.30784055    -0.72450
O251        O  0.73088127  0.05632875  0.25886538    -0.72390
O252        O  0.77588887  0.99195754  0.31225609    -0.72580
V253        V  0.79138658  0.02056321  0.25118326     1.35240
V254        V  0.75393445  0.02425609  0.28540397     1.35170
C255        C  0.80285826  0.97911887  0.30244047     0.76860
C256        C  0.74323067  0.06476744  0.23185911     0.76910
C257        C  0.80514495  0.06705383  0.29822687     0.76780
C258        C  0.74059088  0.97613710  0.24065884     0.76740
O259        O  0.80367954  0.27072164  0.05168503    -0.72380
O260        O  0.76017921  0.22656059  0.98166126    -0.72600
O261        O  0.81058653  0.26976846  0.98789294    -0.72460
O262        O  0.75291420  0.22581231  0.04624480    -0.72470
O263        O  0.71887168  0.26726381  0.04441068    -0.72430
O264        O  0.77455248  0.30916753  0.98202294    -0.72450
O265        O  0.72411775  0.26613353  0.97972281    -0.72390
O266        O  0.76964891  0.31183326  0.04550737    -0.72580
V267        V  0.78114895  0.24892347  0.01688669     1.35240
V268        V  0.74737480  0.28769047  0.01307542     1.35170
C269        C  0.79486963  0.29969950  0.05934346     0.76860
C270        C  0.73453607  0.23920514  0.96858379     0.76910
C271        C  0.80251514  0.29678440  0.97494045     0.76780
C272        C  0.72592675  0.23882974  0.05541742     0.76740
O273        O  0.55762202  0.31036383  0.27791026    -0.72380
O274        O  0.49184046  0.27142087  0.22449873    -0.72600
O275        O  0.49074789  0.31284303  0.27599950    -0.72460
O276        O  0.55810633  0.26837080  0.22680508    -0.72470
O277        O  0.55563331  0.22774148  0.26063793    -0.72430
O278        O  0.48845052  0.27049508  0.30753326    -0.72450
O279        O  0.49025611  0.22941017  0.25652736    -0.72390
O280        O  0.55474953  0.26921718  0.31090936    -0.72580
V281        V  0.52452720  0.29007127  0.25192555     1.35240
V282        V  0.52226291  0.25014854  0.28327843     1.35170
C283        C  0.56744834  0.29658592  0.30368009     0.76860
C284        C  0.48071578  0.24318350  0.23064213     0.76910
C285        C  0.47801496  0.29883345  0.30034652     0.76780
C286        C  0.56783829  0.23995139  0.23542220     0.76740
C287        C  0.18206268  0.35364408  0.18297466    -0.03090
C288        C  0.35708984  0.18933374  0.18809112    -0.03090
C289        C  0.18792815  0.18787180  0.35183321    -0.03090
C290        C  0.27379844  0.27741663  0.27233029    -0.03090
O291        O  0.99019856  0.26818819  0.31181190    -0.72380
O292        O  0.05061240  0.31127855  0.25584666    -0.72600
O293        O  0.98443403  0.31342183  0.26396494    -0.72460
O294        O  0.05576260  0.26582162  0.30379953    -0.72470
O295        O  0.05075352  0.22739188  0.26796146    -0.72430
O296        O  0.97827660  0.27378873  0.22983764    -0.72450
O297        O  0.04443040  0.27263686  0.22052924    -0.72390
O298        O  0.98527953  0.22841905  0.27753803    -0.72580
V299        V  0.02013501  0.28894838  0.28314344     1.35240
V300        V  0.01471408  0.25138226  0.24959577     1.35170
C301        C  0.97827503  0.24046688  0.30479382     0.76860
C302        C  0.05782277  0.29946445  0.22854717     0.76910
C303        C  0.96898813  0.30165050  0.24007024     0.76780
C304        C  0.06516650  0.23838380  0.29271650     0.76740
O305        O  0.26464848  0.98568534  0.30661651    -0.72380
O306        O  0.31222363  0.05428798  0.26607803    -0.72600
O307        O  0.26643136  0.05105127  0.31295275    -0.72460
O308        O  0.31082075  0.98903032  0.26013243    -0.72470
O309        O  0.27079936  0.99254356  0.22499058    -0.72430
O310        O  0.22827203  0.05733985  0.27639542    -0.72450
O311        O  0.27423798  0.05806821  0.22890723    -0.72390
O312        O  0.22482685  0.99190214  0.27182243    -0.72580
V313        V  0.28778750  0.02015965  0.28571057     1.35240
V314        V  0.25029823  0.02492540  0.25117638     1.35170
C315        C  0.23648801  0.97707151  0.29620872     0.76860
C316        C  0.30161865  0.06748484  0.24036718     0.76910
C317        C  0.23974012  0.06473978  0.30384232     0.76780
C318        C  0.29798223  0.97972326  0.23398611     0.76740
O319        O  0.27072958  0.30750093  0.05389962    -0.72380
O320        O  0.31386054  0.25903130  0.98741060    -0.72600
O321        O  0.26907550  0.30883279  0.98898593    -0.72460
O322        O  0.31517852  0.25771353  0.05257715    -0.72470
O323        O  0.27507890  0.22256617  0.05242246    -0.72430
O324        O  0.22890259  0.27398849  0.98972947    -0.72450
O325        O  0.27313313  0.22444626  0.98732683    -0.72390
O326        O  0.23072501  0.27233416  0.05470168    -0.72580
V327        V  0.29146186  0.28257998  0.02075567     1.35240
V328        V  0.25279762  0.24898014  0.02106322     1.35170
C329        C  0.24363311  0.29810428  0.06601338     0.76860
C330        C  0.30033509  0.23392720  0.97546102     0.76910
C331        C  0.24096312  0.30011707  0.97833408     0.76780
C332        C  0.30290630  0.23139802  0.06348337     0.76740
O333        O  0.98435613  0.81627708  0.76157639    -0.72380
O334        O  0.05116961  0.77138797  0.81101360    -0.72600
O335        O  0.05113595  0.81587606  0.76249153    -0.72460
O336        O  0.98422560  0.77150254  0.81014000    -0.72470
O337        O  0.98470591  0.73177859  0.77549075    -0.72430
O338        O  0.05057617  0.77637094  0.72775229    -0.72450
O339        O  0.05095865  0.73211881  0.77587133    -0.72390
O340        O  0.98464294  0.77608084  0.72748739    -0.72580
V341        V  0.01762214  0.79298870  0.78577259     1.35240
V342        V  0.01774872  0.75489229  0.75240866     1.35170
C343        C  0.97363206  0.80397376  0.73558335     0.76860
C344        C  0.06303597  0.74434658  0.80120400     0.76910
C345        C  0.06182918  0.80391281  0.73639155     0.76780
C346        C  0.97323029  0.74392421  0.80110485     0.76740
O347        O  0.81438108  0.98222961  0.76501481    -0.72380
O348        O  0.76663027  0.04573349  0.81239627    -0.72600
O349        O  0.76661208  0.97985032  0.81118318    -0.72460
O350        O  0.81285890  0.04770207  0.76563918    -0.72470
O351        O  0.77490761  0.04593674  0.72850752    -0.72430
O352        O  0.72797459  0.98191583  0.77478428    -0.72450
O353        O  0.72859496  0.04769266  0.77532035    -0.72390
O354        O  0.77571464  0.98074429  0.72870114    -0.72580
V355        V  0.78937095  0.01372120  0.78788521     1.35240
V356        V  0.75249871  0.01398268  0.75258964     1.35170
C357        C  0.80392680  0.97092168  0.73867335     0.76860
C358        C  0.74016973  0.05845891  0.80174381     0.76910
C359        C  0.73858943  0.97012811  0.80102469     0.76780
C360        C  0.80117518  0.05844456  0.73916871     0.76740
O361        O  0.72554577  0.77196376  0.98595119    -0.72380
O362        O  0.77419042  0.72556968  0.05218167    -0.72600
O363        O  0.72672877  0.77309901  0.05081850    -0.72460
O364        O  0.77083419  0.72297034  0.98757150    -0.72470
O365        O  0.80785181  0.76098973  0.98187179    -0.72430
O366        O  0.76767651  0.80739121  0.05208138    -0.72450
O367        O  0.81438193  0.76006927  0.04564898    -0.72390
O368        O  0.76308727  0.80980185  0.98753714    -0.72580
V369        V  0.75000705  0.74903378  0.01907740     1.35240
V370        V  0.78743246  0.78392600  0.01682857     1.35170
C371        C  0.73656473  0.79918406  0.97557368     0.76860
C372        C  0.80299543  0.73543345  0.05996113     0.76910
C373        C  0.74008252  0.79782375  0.06331741     0.76780
C374        C  0.79598041  0.73363362  0.97318284     0.76740
C375        C  0.85980351  0.18615406  0.35668857    -0.03090
C376        C  0.85259337  0.85602068  0.35804895    -0.03090
C377        C  0.95521227  0.22381230  0.32738336    -0.06730
C378        C  0.93544168  0.24345943  0.34709421    -0.17860
C379        C  0.90716180  0.23104013  0.36226389     0.10470
C380        C  0.89720370  0.19775485  0.35611010    -0.06650
C381        C  0.92246354  0.17679875  0.34410501    -0.17890
C382        C  0.95063373  0.18953036  0.32868114     0.10500
S383        S  0.88296864  0.26085245  0.38422862    -0.32850
S384        S  0.97902718  0.16093097  0.31021095    -0.32860
H385        H  0.00727625  0.18049992  0.31467814     0.28510
H386        H  0.90874421  0.28307013  0.39046449     0.28500
H387        H  0.94027863  0.26954794  0.34817443     0.19100
H388        H  0.91889537  0.15055083  0.34319116     0.19100
C389        C  0.19925266  0.15105941  0.34854365    -0.06730
C390        C  0.17761499  0.12736990  0.33515925    -0.17860
C391        C  0.18959969  0.09765890  0.32238347     0.10470
C392        C  0.22381753  0.09045307  0.32391941    -0.06650
C393        C  0.24438527  0.11071518  0.34221560    -0.17890
C394        C  0.23300954  0.14084925  0.35428724     0.10500
S395        S  0.16114426  0.06969567  0.30318627    -0.32850
S396        S  0.26394500  0.16742889  0.37216450    -0.32860
H397        H  0.28825508  0.14315510  0.37804094     0.28510
H398        H  0.13248528  0.08942127  0.30575548     0.28500
H399        H  0.15158231  0.13283555  0.33217069     0.19100
H400        H  0.27051513  0.10463325  0.34408110     0.19100
C401        C  0.15293582  0.19401588  0.33539434    -0.06730
C402        C  0.15156844  0.20472816  0.30284147    -0.17860
C403        C  0.12329277  0.21791688  0.28865882     0.10470
C404        C  0.09413867  0.22088828  0.30653663    -0.06650
C405        C  0.09306217  0.20659660  0.33735412    -0.17890
C406        C  0.12150366  0.19167937  0.35133925     0.10500
S407        S  0.12686754  0.23225455  0.24775726    -0.32850
S408        S  0.11527152  0.17156357  0.38965752    -0.32860
H409        H  0.14146212  0.14895340  0.38694221     0.28510
H410        H  0.10995540  0.26178661  0.25373871     0.28500
H411        H  0.17276579  0.20486652  0.28758332     0.19100
H412        H  0.06990055  0.20687606  0.35052657     0.19100
C413        C  0.25289320  0.25386189  0.29385469    -0.06730
C414        C  0.25152960  0.22000568  0.28722403    -0.17860
C415        C  0.23057339  0.19871659  0.30348015     0.10470
C416        C  0.21428362  0.20914901  0.33261957    -0.06650
C417        C  0.22122036  0.24163055  0.34218494    -0.17890
C418        C  0.23635709  0.26455707  0.32233887     0.10500
S419        S  0.22226162  0.16124866  0.28135293    -0.32850
S420        S  0.23400532  0.30648929  0.33725729    -0.32860
H421        H  0.23812187  0.32405803  0.30865339     0.28510
H422        H  0.25472409  0.15617699  0.26986369     0.28500
H423        H  0.26565891  0.20935012  0.26809671     0.19100
H424        H  0.21483756  0.25098414  0.36513066     0.19100
C425        C  0.31938154  0.21236068  0.08999169    -0.06730
C426        C  0.29980646  0.19320408  0.11032382    -0.17860
C427        C  0.31210625  0.18026671  0.13954916     0.10470
C428        C  0.34468581  0.18975390  0.15095876    -0.06650
C429        C  0.36588150  0.20105389  0.12594893    -0.17890
C430        C  0.35360265  0.21358271  0.09663281     0.10500
S431        S  0.28290992  0.15497219  0.16182538    -0.32850
S432        S  0.38308099  0.23042236  0.06864682    -0.32860
H433        H  0.36593829  0.22016293  0.04089294     0.28510
H434        H  0.26310567  0.14587708  0.13537838     0.28500
H435        H  0.27393549  0.18976750  0.10421296     0.19100
H436        H  0.39244516  0.20122064  0.12881868     0.19100
C437        C  0.34902756  0.15500198  0.20397746    -0.06730
C438        C  0.34697622  0.12657602  0.18421775    -0.17860
C439        C  0.33167959  0.09743981  0.19472718     0.10470
C440        C  0.31940059  0.09555902  0.22646586    -0.06650
C441        C  0.32489586  0.12150600  0.24722081    -0.17890
C442        C  0.34045577  0.15004513  0.23720529     0.10500
S443        S  0.32776606  0.06461940  0.16588944    -0.32850
S444        S  0.35295657  0.17443269  0.27066017    -0.32860
H445        H  0.38675633  0.16889127  0.26426063     0.28510
H446        H  0.31784018  0.03983023  0.18715607     0.28500
H447        H  0.35540467  0.12761811  0.15950552     0.19100
H448        H  0.31738969  0.11917867  0.27223740     0.19100
C449        C  0.33796518  0.21735000  0.20776836    -0.06730
C450        C  0.30389543  0.22276236  0.20154220    -0.17860
C451        C  0.28279863  0.24105532  0.22105855     0.10470
C452        C  0.29583948  0.25788643  0.24807148    -0.06650
C453        C  0.33050184  0.25778574  0.25126347    -0.17890
C454        C  0.35139561  0.23784389  0.23311904     0.10500
S455        S  0.23874897  0.23891937  0.21194016    -0.32850
S456        S  0.39273415  0.23716393  0.25054876    -0.32860
H457        H  0.39565009  0.27142429  0.25377517     0.28510
H458        H  0.24140978  0.23203932  0.17884375     0.28500
H459        H  0.29204210  0.21283889  0.18149768     0.19100
H460        H  0.34223282  0.27175158  0.26994241     0.19100
C461        C  0.14593431  0.34021655  0.18645137    -0.06730
C462        C  0.11955485  0.36141150  0.19577985    -0.17860
C463        C  0.08929908  0.34921452  0.20740032     0.10470
C464        C  0.08364487  0.31506905  0.20796060    -0.06650
C465        C  0.10661579  0.29456234  0.19266349    -0.17890
C466        C  0.13794298  0.30585623  0.18323968     0.10500
S467        S  0.05919434  0.37847075  0.22201397    -0.32850
S468        S  0.16579226  0.27311586  0.17046953    -0.32860
H469        H  0.19640286  0.28870595  0.16984521     0.28510
H470        H  0.03135994  0.35896269  0.21536950     0.28500
H471        H  0.12282509  0.38770805  0.19599146     0.19100
H472        H  0.10165350  0.26850433  0.19135069     0.19100
C473        C  0.22740369  0.31661076  0.09280921    -0.06730
C474        C  0.19279466  0.31575650  0.09611446    -0.17860
C475        C  0.17630688  0.33240535  0.12122961     0.10470
C476        C  0.19505175  0.34694919  0.14703367    -0.06650
C477        C  0.22853831  0.35324844  0.13886070    -0.17890
C478        C  0.24511974  0.33714437  0.11387644     0.10500
S479        S  0.13217519  0.33749305  0.11484218    -0.32850
S480        S  0.28927434  0.34323199  0.11135990    -0.32860
H481        H  0.29661797  0.30940545  0.11011396     0.28510
H482        H  0.12963170  0.36791150  0.13022034     0.28500
H483        H  0.17820726  0.30322931  0.07801539     0.19100
H484        H  0.24236057  0.37194585  0.15085982     0.19100
C485        C  0.25040561  0.30004764  0.25131371    -0.06730
C486        C  0.21565741  0.29896226  0.25550394    -0.17860
C487        C  0.19318164  0.31705328  0.23684525     0.10470
C488        C  0.20453892  0.33495624  0.20905046    -0.06650
C489        C  0.23906908  0.33981293  0.20860002    -0.17890
C490        C  0.26168237  0.32024414  0.22550949     0.10500
S491        S  0.15231474  0.32022540  0.25495028    -0.32850
S492        S  0.30430220  0.32147272  0.21142823    -0.32860
H493        H  0.29868503  0.33986032  0.18318749     0.28510
H494        H  0.16158297  0.31416500  0.28719398     0.28500
H495        H  0.20475407  0.28355594  0.27354443     0.19100
H496        H  0.24927085  0.36062357  0.19684091     0.19100
C497        C  0.39515013  0.19781440  0.18942169    -0.06730
C498        C  0.40428300  0.23005496  0.17961204    -0.17860
C499        C  0.43469794  0.24406417  0.18812463     0.10470
C500        C  0.45621188  0.22667446  0.20918575    -0.06650
C501        C  0.45040382  0.19306479  0.21393152    -0.17890
C502        C  0.42118251  0.17808611  0.20310868     0.10500
S503        S  0.44137820  0.28590156  0.17585226    -0.32850
S504        S  0.42072703  0.13416421  0.20709153    -0.32860
H505        H  0.41395156  0.12989751  0.17410689     0.28510
H506        H  0.47456996  0.28004806  0.16699267     0.28500
H507        H  0.38608088  0.24581320  0.16790183     0.19100
H508        H  0.46828625  0.17846872  0.22742791     0.19100
C509        C  0.84733564  0.89187391  0.34516905    -0.06730
C510        C  0.83499492  0.91717250  0.36541523    -0.17860
C511        C  0.82098757  0.94633009  0.35279887     0.10470
C512        C  0.82033810  0.95151868  0.31918380    -0.06650
C513        C  0.83697305  0.92894900  0.29953014    -0.17890
C514        C  0.85071329  0.89982346  0.31164934     0.10500
S515        S  0.80443580  0.97581853  0.38074891    -0.32850
S516        S  0.87035053  0.87306067  0.28247970    -0.32860
H517        H  0.87505994  0.89654513  0.25802201     0.28510
H518        H  0.81389368  0.00324488  0.36241246     0.28500
H519        H  0.83498673  0.91401316  0.39127862     0.19100
H520        H  0.83757650  0.93319916  0.27377419     0.19100
C521        C  0.85503597  0.14955086  0.34441148    -0.06730
C522        C  0.83816318  0.12606700  0.36336161    -0.17860
C523        C  0.82209635  0.09883871  0.34941910     0.10470
C524        C  0.82449176  0.09278426  0.31589079    -0.06650
C525        C  0.84559781  0.11262845  0.29800352    -0.17890
C526        C  0.86073654  0.14046151  0.31117535     0.10500
S527        S  0.79739979  0.07371436  0.37551363    -0.32850
S528        S  0.88343307  0.16524959  0.28249016    -0.32860
H529        H  0.89070581  0.14016275  0.26032425     0.28510
H530        H  0.76744274  0.08651012  0.36305240     0.28500
H531        H  0.83349390  0.13080295  0.38850749     0.19100
H532        H  0.84827100  0.10774349  0.27250684     0.19100
C533        C  0.83857279  0.20503295  0.33106892    -0.06730
C534        C  0.85275338  0.22896065  0.31094056    -0.17860
C535        C  0.83390638  0.25087398  0.29281861     0.10470
C536        C  0.79880352  0.24623616  0.29062786    -0.06650
C537        C  0.78471789  0.22348136  0.31184241    -0.17890
C538        C  0.80334487  0.20124575  0.32947355     0.10500
S539        S  0.85842031  0.28482951  0.27800425    -0.32850
S540        S  0.77981572  0.17154027  0.35252284    -0.32860
H541        H  0.74993126  0.18948163  0.35470287     0.28510
H542        H  0.83748937  0.31031279  0.28779456     0.28500
H543        H  0.87918816  0.23155075  0.30915277     0.19100
H544        H  0.75834041  0.22117294  0.31274502     0.19100
C545        C  0.21044986  0.22344897  0.44850893    -0.06730
C546        C  0.18854271  0.24198534  0.42929299    -0.17860
C547        C  0.17556402  0.22954020  0.40032232     0.10470
C548        C  0.18726524  0.19833552  0.38874882    -0.06650
C549        C  0.20085392  0.17734991  0.41288454    -0.17890
C550        C  0.21363214  0.18971276  0.44182049     0.10500
S551        S  0.14964657  0.25728256  0.37673671    -0.32850
S552        S  0.23398888  0.16121452  0.46883011    -0.32860
H553        H  0.22344991  0.17731737  0.49696861     0.28510
H554        H  0.14086916  0.27845899  0.40208142     0.28500
H555        H  0.18357210  0.26731404  0.43558731     0.19100
H556        H  0.20405991  0.15138039  0.40880004     0.19100
C557        C  0.94672354  0.81288783  0.32725273    -0.06730
C558        C  0.94351707  0.84729918  0.32731450    -0.17860
C559        C  0.91703299  0.86326784  0.34311400     0.10470
C560        C  0.89033289  0.84442184  0.35571856    -0.06650
C561        C  0.89807916  0.81087108  0.36215082    -0.17890
C562        C  0.92487071  0.79483754  0.34712933     0.10500
S563        S  0.92113664  0.90687303  0.34889616    -0.32850
S564        S  0.92645020  0.75074862  0.35076947    -0.32860
H565        H  0.92923523  0.74533953  0.31741793     0.28510
H566        H  0.90411971  0.90695235  0.37843254     0.28500
H567        H  0.96220286  0.86198370  0.31548603     0.19100
H568        H  0.87986725  0.79572900  0.37411045     0.19100
C569        C  0.21901131  0.44396423  0.22360515    -0.06730
C570        C  0.21786267  0.44160717  0.18986271    -0.17860
C571        C  0.20013679  0.41631684  0.17450425     0.10470
C572        C  0.18565236  0.39075624  0.19325383    -0.06650
C573        C  0.18174246  0.39762011  0.22638302    -0.17890
C574        C  0.19968976  0.42202058  0.24184423     0.10500
S575        S  0.19251549  0.42163846  0.13204913    -0.32850
S576        S  0.19965421  0.42101378  0.28534548    -0.32860
H577        H  0.23409799  0.42568045  0.28827525     0.28510
H578        H  0.15892766  0.41358117  0.13492454     0.28500
H579        H  0.22968090  0.46031696  0.17537448     0.19100
H580        H  0.16804282  0.38115172  0.24141861     0.19100
C581        C  0.39776433  0.34541925  0.35392975    -0.06730
C582        C  0.40385616  0.31121941  0.35566100    -0.17860
C583        C  0.42900994  0.29574327  0.33839842     0.10470
C584        C  0.45159389  0.31460459  0.32032682    -0.06650
C585        C  0.44983288  0.34894939  0.32334269    -0.17890
C586        C  0.42450450  0.36448816  0.34134721     0.10500
S587        S  0.42835887  0.25151334  0.33816736    -0.32850
S588        S  0.43097695  0.40749378  0.34969701    -0.32860
H589        H  0.41001943  0.40948450  0.37638196     0.28510
H590        H  0.45716910  0.24904151  0.35731040     0.28500
H591        H  0.38757773  0.29563411  0.36917347     0.19100
H592        H  0.46893236  0.36380465  0.31238291     0.19100
C593        C  0.34657004  0.34911231  0.39392373    -0.06730
C594        C  0.31144412  0.35049324  0.39677723    -0.17860
C595        C  0.29436556  0.33547644  0.42193217     0.10470
C596        C  0.31208731  0.31926184  0.44668145    -0.06650
C597        C  0.34689669  0.32013093  0.44605063    -0.17890
C598        C  0.36432766  0.33564906  0.42090893     0.10500
S599        S  0.24972745  0.33519905  0.41903569    -0.32850
S600        S  0.40850430  0.33849334  0.42696119    -0.32860
H601        H  0.41091739  0.37003898  0.41392723     0.28510
H602        H  0.24706073  0.30144539  0.42584350     0.28500
H603        H  0.29678277  0.36102887  0.37732978     0.19100
H604        H  0.36073221  0.30914268  0.46581978     0.19100
C605        C  0.35313370  0.39424994  0.34993345    -0.06730
C606        C  0.36108419  0.40475270  0.31858229    -0.17860
C607        C  0.34270268  0.42842116  0.30204285     0.10470
C608        C  0.31842239  0.44702089  0.31845855    -0.06650
C609        C  0.31519297  0.44201803  0.35178143    -0.17890
C610        C  0.33348864  0.41723160  0.36799452     0.10500
S611        S  0.34977457  0.43080978  0.25915363    -0.32850
S612        S  0.33482250  0.42113601  0.41130631    -0.32860
H613        H  0.36716102  0.40866611  0.41458215     0.28510
H614        H  0.31581079  0.42907195  0.25131862     0.28500
H615        H  0.38044701  0.39278264  0.30548479     0.19100
H616        H  0.29943710  0.45842717  0.36553372     0.19100
C617        C  0.34012018  0.33455568  0.33576878    -0.06730
C618        C  0.32876803  0.30322366  0.34554104    -0.17860
C619        C  0.31156936  0.28288652  0.32449828     0.10470
C620        C  0.29634101  0.29708756  0.29616197    -0.06650
C621        C  0.30566516  0.32966556  0.28922407    -0.17890
C622        C  0.33440364  0.34196183  0.30306351     0.10500
S623        S  0.31183151  0.24010595  0.33644259    -0.32850
S624        S  0.36946870  0.33994863  0.27615466    -0.32860
H625        H  0.35269250  0.35503074  0.25024379     0.28510
H626        H  0.31615847  0.22741192  0.30549686     0.28500
H627        H  0.33457792  0.29340631  0.36913004     0.19100
H628        H  0.29532325  0.34362411  0.26975651     0.19100
C629        C  0.33891224  0.64854970  0.34744324    -0.06730
C630        C  0.30436848  0.64242883  0.34737460    -0.17860
C631        C  0.29031693  0.61527751  0.33231595     0.10470
C632        C  0.31074617  0.59131352  0.31782646    -0.06650
C633        C  0.34522798  0.59456313  0.32107005    -0.17890
C634        C  0.35940543  0.62190982  0.33666934     0.10500
S635        S  0.24577691  0.61520459  0.32854174    -0.32850
S636        S  0.40292502  0.61848698  0.34566359    -0.32860
H637        H  0.39663459  0.61253295  0.37847420     0.28510
H638        H  0.24238923  0.58966185  0.35117605     0.28500
H639        H  0.28737892  0.66075038  0.35594327     0.19100
H640        H  0.36127912  0.57519169  0.31213968     0.19100
C641        C  0.32406573  0.70672444  0.33214066    -0.06730
C642        C  0.32035153  0.69932336  0.29934606    -0.17860
C643        C  0.30322071  0.71926274  0.27771412     0.10470
C644        C  0.28469604  0.74694748  0.28852090    -0.06650
C645        C  0.28390510  0.75153664  0.32198936    -0.17890
C646        C  0.30034505  0.73058100  0.34367126     0.10500
S647        S  0.30402510  0.70479557  0.23716070    -0.32850
S648        S  0.28195023  0.73255242  0.38323342    -0.32860
H649        H  0.27734133  0.69908685  0.38832673     0.28510
H650        H  0.27870430  0.68380532  0.24639592     0.28500
H651        H  0.32845811  0.67593188  0.29033286     0.19100
H652        H  0.26881506  0.77044645  0.33206956     0.19100
C653        C  0.19806595  0.64868986  0.19213658    -0.06730
C654        C  0.22938294  0.64645767  0.20768799    -0.17860
C655        C  0.24207709  0.61761300  0.22052380     0.10470
C656        C  0.22341738  0.58898612  0.21906993    -0.06650
C657        C  0.19451218  0.58884189  0.20005364    -0.17890
C658        C  0.18291813  0.61801739  0.18489965     0.10500
S659        S  0.28253636  0.61865101  0.23909243    -0.32850
S660        S  0.14744765  0.61486140  0.15904900    -0.32860
H661        H  0.16659348  0.62184158  0.13163719     0.28510
H662        H  0.29696446  0.59852632  0.21540316     0.28500
H663        H  0.24480023  0.66754847  0.21019984     0.19100
H664        H  0.18127095  0.56607942  0.19664368     0.19100
C665        C  0.19674025  0.68840895  0.14636981    -0.06730
C666        C  0.23175196  0.68954615  0.14252217    -0.17860
C667        C  0.24704030  0.70250117  0.11543050     0.10470
C668        C  0.22754049  0.71518433  0.09020206    -0.06650
C669        C  0.19309725  0.70970410  0.09097173    -0.17890
C670        C  0.17760584  0.69479324  0.11789745     0.10500
S671        S  0.29149530  0.70653161  0.11703357    -0.32850
S672        S  0.13458203  0.68325264  0.11387330    -0.32860
H673        H  0.13049337  0.69216857  0.08132121     0.28510
H674        H  0.29642786  0.68620716  0.09009592     0.28500
H675        H  0.24819048  0.68379235  0.16207757     0.19100
H676        H  0.17829163  0.71743195  0.07046492     0.19100
C677        C  0.14631044  0.69060837  0.19037754    -0.06730
C678        C  0.13242825  0.72034484  0.17817342    -0.17860
C679        C  0.10598429  0.73730815  0.19264505     0.10470
C680        C  0.09060382  0.72431670  0.22026374    -0.06650
C681        C  0.10164940  0.69352443  0.23117354    -0.17890
C682        C  0.12898067  0.67687566  0.21764869     0.10500
S683        S  0.09508263  0.77667379  0.17568366    -0.32850
S684        S  0.14139631  0.64049518  0.23992481    -0.32860
H685        H  0.10966246  0.63178690  0.25092215     0.28510
H686        H  0.10263430  0.79354663  0.20430659     0.28500
H687        H  0.14377266  0.73237129  0.15808403     0.19100
H688        H  0.08996342  0.68304864  0.25223091     0.19100
C689        C  0.24205591  0.74913421  0.24428905    -0.06730
C690        C  0.23348239  0.75966200  0.21296224    -0.17860
C691        C  0.21318800  0.74148260  0.19267240     0.10470
C692        C  0.20088857  0.71061938  0.20350217    -0.06650
C693        C  0.20254911  0.70492233  0.23701203    -0.17890
C694        C  0.22270204  0.72317199  0.25741011     0.10500
S695        S  0.20086032  0.76182582  0.15577333    -0.32850
S696        S  0.21931954  0.71462329  0.30009836    -0.32860
H697        H  0.20597705  0.68291995  0.29774399     0.28510
H698        H  0.20067396  0.79388725  0.16832284     0.28500
H699        H  0.24092978  0.78381513  0.20500530     0.19100
H700        H  0.18955930  0.68449145  0.24715804     0.19100
C701        C  0.32679641  0.72209327  0.44892730    -0.06730
C702        C  0.34543731  0.74179380  0.42831179    -0.17860
C703        C  0.35513326  0.73081487  0.39778951     0.10470
C704        C  0.34813815  0.69747225  0.38811274    -0.06650
C705        C  0.33594087  0.67622503  0.41238878    -0.17890
C706        C  0.32457535  0.68825291  0.44208909     0.10500
S707        S  0.37181583  0.76341977  0.37281856    -0.32850
S708        S  0.30642280  0.65930026  0.46968724    -0.32860
H709        H  0.31466807  0.67675988  0.49771868     0.28510
H710        H  0.36797280  0.75011773  0.34225596     0.28500
H711        H  0.34865448  0.76750454  0.43412081     0.19100
H712        H  0.33285148  0.65034326  0.40779602     0.19100
C713        C  0.31331780  0.71367989  0.58570593    -0.06730
C714        C  0.29233526  0.70984985  0.61152373    -0.17860
C715        C  0.30451817  0.70985158  0.64261393     0.10470
C716        C  0.33827572  0.69897887  0.64825706    -0.06650
C717        C  0.35606116  0.69004149  0.62006848    -0.17890
C718        C  0.34609206  0.70205595  0.58943419     0.10500
S719        S  0.27330709  0.72399046  0.67094987    -0.32850
S720        S  0.37499243  0.69974399  0.55647988    -0.32860
H721        H  0.35267777  0.70854704  0.53183300     0.28510
H722        H  0.27086251  0.69554948  0.68950923     0.28500
H723        H  0.26616121  0.70862543  0.60774605     0.19100
H724        H  0.37936035  0.67684678  0.62223612     0.19100
C725        C  0.33322821  0.70786840  0.70889706    -0.06730
C726        C  0.31894733  0.69149602  0.73542810    -0.17860
C727        C  0.30179308  0.70832182  0.75955236     0.10470
C728        C  0.29442246  0.74245171  0.75549289    -0.06650
C729        C  0.31758521  0.75871943  0.73608380    -0.17890
C730        C  0.33438449  0.74280763  0.71118015     0.10500
S731        S  0.29981453  0.68702574  0.79765938    -0.32850
S732        S  0.35407061  0.76872377  0.68175990    -0.32860
H733        H  0.33882946  0.79850693  0.69073089     0.28510
H734        H  0.29559592  0.65538386  0.78479714     0.28500
H735        H  0.32317491  0.66559794  0.73902540     0.19100
H736        H  0.32367479  0.78391399  0.74086085     0.19100
C737        C  0.34275458  0.65015689  0.68445734    -0.06730
C738        C  0.30922446  0.64143409  0.67986286    -0.17860
C739        C  0.29438218  0.61648887  0.69743664     0.10470
C740        C  0.31408749  0.59535171  0.71663442    -0.06650
C741        C  0.34878674  0.59851801  0.71476739    -0.17890
C742        C  0.36333134  0.62446315  0.69716552     0.10500
S743        S  0.24961701  0.61593692  0.69690768    -0.32850
S744        S  0.40672203  0.61994328  0.68751783    -0.32860
H745        H  0.40493916  0.63924919  0.65943899     0.28510
H746        H  0.24705396  0.61424305  0.73069648     0.28500
H747        H  0.29305547  0.65553885  0.66472278     0.19100
H748        H  0.36458469  0.58008036  0.72597092     0.19100
C749        C  0.34120920  0.35197717  0.64256545    -0.06730
C750        C  0.30694669  0.35344825  0.63602378    -0.17860
C751        C  0.29145383  0.33568529  0.61176817     0.10470
C752        C  0.31058653  0.31856519  0.58901459    -0.06650
C753        C  0.34520148  0.32127976  0.59110284    -0.17890
C754        C  0.36068832  0.33907560  0.61621765     0.10500
S755        S  0.24672341  0.33449443  0.61288131    -0.32850
S756        S  0.40407265  0.34749195  0.60897198    -0.32860
H757        H  0.40600345  0.37599242  0.62739167     0.28510
H758        H  0.24525874  0.30051229  0.60716344     0.28500
H759        H  0.29132897  0.36902666  0.64938248     0.19100
H760        H  0.36027701  0.31083598  0.57208597     0.19100
C761        C  0.34720077  0.39579316  0.69058575    -0.06730
C762        C  0.35084607  0.40066478  0.72432833    -0.17860
C763        C  0.33797377  0.42805608  0.74021797     0.10470
C764        C  0.32086138  0.45250552  0.72252639    -0.06650
C765        C  0.32007461  0.45001958  0.68878550    -0.17890
C766        C  0.33392560  0.42290434  0.67249205     0.10500
S767        S  0.34192079  0.42849132  0.78352330    -0.32850
S768        S  0.33363351  0.42613475  0.62919669    -0.32860
H769        H  0.36519867  0.41245246  0.62535825     0.28510
H770        H  0.30813339  0.43498491  0.78913226     0.28500
H771        H  0.36202622  0.38150548  0.73904281     0.19100
H772        H  0.30844333  0.46953962  0.67486627     0.19100
C773        C  0.29504464  0.29361688  0.74402724    -0.06730
C774        C  0.27973256  0.31958354  0.72722796    -0.17860
C775        C  0.29715810  0.34232495  0.70884394     0.10470
C776        C  0.33190401  0.33761486  0.70262328    -0.06650
C777        C  0.34698605  0.31259716  0.72179672    -0.17890
C778        C  0.32928960  0.28829861  0.73786731     0.10500
S779        S  0.27485838  0.38070879  0.70428681    -0.32850
S780        S  0.35121375  0.24976402  0.74481040    -0.32860
H781        H  0.38339051  0.25999966  0.73695283     0.28510
H782        H  0.24358904  0.36680234  0.69823286     0.28500
H783        H  0.25380696  0.32400605  0.73095940     0.19100
H784        H  0.37310650  0.31176891  0.72608946     0.19100
C785        C  0.21236795  0.22348331  0.58689530    -0.06730
C786        C  0.19352169  0.24368809  0.60697216    -0.17860
C787        C  0.18127098  0.23269463  0.63651956     0.10470
C788        C  0.18756747  0.19946296  0.64694462    -0.06650
C789        C  0.20138188  0.17790203  0.62367527    -0.17890
C790        C  0.21450830  0.18969466  0.59446295     0.10500
S791        S  0.16127161  0.26383332  0.66098952    -0.32850
S792        S  0.23521334  0.16082112  0.56864376    -0.32860
H793        H  0.26684046  0.17150867  0.57826051     0.28510
H794        H  0.15234776  0.28545852  0.63585122     0.28500
H795        H  0.19067745  0.26939481  0.60079228     0.19100
H796        H  0.20531240  0.15222680  0.62922576     0.19100
C797        C  0.14927537  0.19039539  0.69717272    -0.06730
C798        C  0.12259951  0.20183366  0.67774867    -0.17860
C799        C  0.09360000  0.21503828  0.69131872     0.10470
C800        C  0.08959059  0.21509393  0.72505941    -0.06650
C801        C  0.11179672  0.19636493  0.74349117    -0.17890
C802        C  0.14089631  0.18334359  0.73017533     0.10500
S803        S  0.06241316  0.23097751  0.66435288    -0.32850
S804        S  0.16559707  0.15970553  0.75812288    -0.32860
H805        H  0.19478749  0.17334362  0.74797388     0.28510
H806        H  0.03641205  0.21806775  0.68286620     0.28500
H807        H  0.12479558  0.20277534  0.65183099     0.19100
H808        H  0.10762435  0.19355701  0.76914059     0.19100
C809        C  0.20047398  0.15315492  0.68992875    -0.06730
C810        C  0.23342447  0.14880664  0.70134792    -0.17860
C811        C  0.24566663  0.11969838  0.71425555     0.10470
C812        C  0.22494455  0.09251871  0.71751751    -0.06650
C813        C  0.19287591  0.09451663  0.70433249    -0.17890
C814        C  0.18105298  0.12365447  0.68919064     0.10500
S815        S  0.28794870  0.11993692  0.72874959    -0.32850
S816        S  0.14094225  0.12063784  0.67008252    -0.32860
H817        H  0.14701622  0.14401716  0.64602751     0.28510
H818        H  0.27832897  0.11264259  0.76038410     0.28500
H819        H  0.25075295  0.16802588  0.70291466     0.19100
H820        H  0.17722139  0.07303838  0.70510824     0.19100
C821        C  0.20764726  0.21613446  0.70110685    -0.06730
C822        C  0.19332550  0.23747334  0.72421513    -0.17860
C823        C  0.21165091  0.26079543  0.74100755     0.10470
C824        C  0.24698846  0.25792006  0.74130837    -0.06650
C825        C  0.26075339  0.24072489  0.71506684    -0.17890
C826        C  0.24127036  0.22385319  0.69287315     0.10500
S827        S  0.18640214  0.29487263  0.75496042    -0.32850
S828        S  0.26246777  0.21013458  0.65683518    -0.32860
H829        H  0.28785206  0.23366802  0.65750781     0.28510
H830        H  0.21009118  0.31932653  0.75780399     0.28500
H831        H  0.16684539  0.23923080  0.72701897     0.19100
H832        H  0.28733443  0.24009600  0.71188711     0.19100
C833        C  0.44618726  0.31805782  0.71319465    -0.06730
C834        C  0.44156084  0.35203928  0.71580587    -0.17860
C835        C  0.41616334  0.36844223  0.69879417     0.10470
C836        C  0.39115376  0.34972868  0.68265907    -0.06650
C837        C  0.39987220  0.31671593  0.67560126    -0.17890
C838        C  0.42694147  0.30099964  0.69015145     0.10500
S839        S  0.42058571  0.41248749  0.69639960    -0.32850
S840        S  0.43193426  0.25790286  0.68157711    -0.32860
H841        H  0.46360058  0.26222784  0.66809967     0.28510
H842        H  0.40542292  0.41586341  0.66616866     0.28500
H843        H  0.45862992  0.36613234  0.73037972     0.19100
H844        H  0.38267055  0.30142619  0.66248472     0.19100
C845        C  0.64992559  0.34358072  0.70090390    -0.06730
C846        C  0.64718425  0.33616817  0.73411413    -0.17860
C847        C  0.61807598  0.32441383  0.74761339     0.10470
C848        C  0.58998836  0.31993933  0.72803846    -0.06650
C849        C  0.59018380  0.33308599  0.69669801    -0.17890
C850        C  0.61919875  0.34719772  0.68377015     0.10500
S851        S  0.61850860  0.31528484  0.79009999    -0.32850
S852        S  0.61449449  0.36996270  0.64643394    -0.32860
H853        H  0.64276371  0.38946569  0.65000607     0.28510
H854        H  0.60645556  0.28353942  0.78570397     0.28500
H855        H  0.66794760  0.33950387  0.75013956     0.19100
H856        H  0.56756539  0.33301213  0.68252681     0.19100
C857        C  0.71098647  0.32741240  0.70794240    -0.06730
C858        C  0.73031872  0.34219597  0.73305554    -0.17860
C859        C  0.75470755  0.32580399  0.75119518     0.10470
C860        C  0.75667206  0.29125958  0.75049737    -0.06650
C861        C  0.73725943  0.27591257  0.72684720    -0.17890
C862        C  0.71434284  0.29230577  0.70712616     0.10500
S863        S  0.78255792  0.35165466  0.77288765    -0.32850
S864        S  0.68885843  0.26411556  0.68569538    -0.32860
H865        H  0.68602445  0.24066062  0.71055887     0.28510
H866        H  0.81047606  0.33657084  0.75886336     0.28500
H867        H  0.72620689  0.36722259  0.74040431     0.19100
H868        H  0.73941145  0.24960213  0.72426953     0.19100
C869        C  0.72759295  0.44417392  0.72071781    -0.06730
C870        C  0.69345938  0.43960172  0.72374395    -0.17860
C871        C  0.67700852  0.41244302  0.71020529     0.10470
C872        C  0.69572407  0.38728961  0.69349160    -0.06650
C873        C  0.72973136  0.39492694  0.68789189    -0.17890
C874        C  0.74570249  0.42169422  0.70183507     0.10500
S875        S  0.63259080  0.41296677  0.71612507    -0.32850
S876        S  0.79027418  0.42246965  0.69840531    -0.32860
H877        H  0.79556169  0.42672683  0.73168273     0.28510
H878        H  0.62850125  0.44710304  0.71971347     0.28500
H879        H  0.67947648  0.45743023  0.73757159     0.19100
H880        H  0.74562725  0.37683047  0.67651461     0.19100
C881        C  0.69545404  0.65176619  0.69937517    -0.06730
C882        C  0.71412353  0.64903200  0.72831794    -0.17860
C883        C  0.72647304  0.61996119  0.74063344     0.10470
C884        C  0.72472560  0.59139141  0.72246202    -0.06650
C885        C  0.70625642  0.59198314  0.69370585    -0.17890
C886        C  0.69042915  0.62125210  0.68266103     0.10500
S887        S  0.74527963  0.62138516  0.78013525    -0.32850
S888        S  0.66601507  0.61711909  0.64638045    -0.32860
H889        H  0.64378353  0.64287604  0.65234087     0.28510
H890        H  0.72091054  0.60139310  0.79409543     0.28500
H891        H  0.72033619  0.66916178  0.74302187     0.19100
H892        H  0.70352128  0.56946688  0.68017326     0.19100
C893        C  0.70591744  0.71453742  0.70406477    -0.06730
C894        C  0.72849437  0.73479524  0.68768684    -0.17860
C895        C  0.74989128  0.75640407  0.70297919     0.10470
C896        C  0.75213580  0.75632455  0.73752186    -0.06650
C897        C  0.72607631  0.73965682  0.75337724    -0.17890
C898        C  0.70136108  0.72262128  0.73723144     0.10500
S899        S  0.76896198  0.78297148  0.67378125    -0.32850
S900        S  0.66727709  0.71031967  0.76266458    -0.32860
H901        H  0.66567949  0.67701260  0.75530958     0.28510
H902        H  0.77159964  0.81072579  0.69248368     0.28500
H903        H  0.72790836  0.73643102  0.66183976     0.19100
H904        H  0.72463889  0.73953404  0.77934666     0.19100
C905        C  0.83930695  0.85051757  0.39397888    -0.06730
C906        C  0.80554014  0.85669223  0.40115302    -0.17860
C907        C  0.78965360  0.84457822  0.42863416     0.10470
C908        C  0.80690593  0.82337199  0.44980009    -0.06650
C909        C  0.84154080  0.82130238  0.44612458    -0.17890
C910        C  0.85807989  0.83746289  0.42058560     0.10500
S911        S  0.74753974  0.85785078  0.43509829    -0.32850
S912        S  0.90137415  0.84726099  0.42695795    -0.32860
H913        H  0.90644660  0.82820874  0.45489587     0.28510
H914        H  0.75407171  0.86910783  0.46649007     0.28500
H915        H  0.79118024  0.87269431  0.38634680     0.19100
H916        H  0.85586104  0.80858065  0.46448108     0.19100
C917        C  0.69663333  0.68746525  0.64871429    -0.06730
C918        C  0.67448818  0.69859655  0.62441115    -0.17860
C919        C  0.68605229  0.71196849  0.59531765     0.10470
C920        C  0.72043536  0.71253592  0.58902155    -0.06650
C921        C  0.74144260  0.69423847  0.60931659    -0.17890
C922        C  0.73012067  0.68106995  0.63862854     0.10500
S923        S  0.65570674  0.72860739  0.56763980    -0.32850
S924        S  0.76105212  0.66241644  0.66471779    -0.32860
H925        H  0.78488499  0.65610408  0.64079749     0.28510
H926        H  0.67368848  0.72052971  0.53971614     0.28500
H927        H  0.64810425  0.69969060  0.62881532     0.19100
H928        H  0.76762780  0.69286840  0.60373300     0.19100
C929        C  0.83060206  0.83379547  0.33490798    -0.06730
C930        C  0.84562580  0.80899184  0.31614363    -0.17860
C931        C  0.82858778  0.78356009  0.30172645     0.10470
C932        C  0.79323953  0.78530990  0.29971850    -0.06650
C933        C  0.77784344  0.81184239  0.31576500    -0.17890
C934        C  0.79571444  0.83754673  0.32946792     0.10500
S935        S  0.85502154  0.74886931  0.29137265    -0.32850
S936        S  0.77420777  0.87687929  0.32879623    -0.32860
H937        H  0.74945541  0.86901308  0.30614311     0.28510
H938        H  0.88276127  0.76681653  0.28111971     0.28500
H939        H  0.87158481  0.80949864  0.31099844     0.19100
H940        H  0.75127892  0.81484674  0.31391498     0.19100
C941        C  0.67983122  0.69420430  0.39529035    -0.06730
C942        C  0.68014987  0.72828021  0.40060998    -0.17860
C943        C  0.69733041  0.74216642  0.42601303     0.10470
C944        C  0.71071495  0.72202434  0.45042915    -0.06650
C945        C  0.70238062  0.68846907  0.45015810    -0.17890
C946        C  0.68536496  0.67470610  0.42342596     0.10500
S947        S  0.70397805  0.78576008  0.42368138    -0.32850
S948        S  0.66987877  0.63355508  0.42754632    -0.32860
H949        H  0.64461538  0.63773642  0.40438219     0.28510
H950        H  0.73818100  0.78294412  0.43002020     0.28500
H951        H  0.67024133  0.74493890  0.38336905     0.19100
H952        H  0.70876507  0.67313850  0.47066808     0.19100
C953        C  0.70255846  0.70635060  0.33974685    -0.06730
C954        C  0.73677552  0.69956692  0.33769815    -0.17860
C955        C  0.75954186  0.72002796  0.32316755     0.10470
C956        C  0.74812468  0.74600161  0.30358080    -0.06650
C957        C  0.71595606  0.75721534  0.31027368    -0.17890
C958        C  0.69267588  0.73789255  0.32611336     0.10500
S959        S  0.80201910  0.70767439  0.32773537    -0.32850
S960        S  0.65180357  0.75709865  0.32668189    -0.32860
H961        H  0.65345737  0.77169889  0.29590904     0.28510
H962        H  0.80890613  0.73453586  0.34784464     0.28500
H963        H  0.74756282  0.67742838  0.34537995     0.19100
H964        H  0.70805486  0.78115670  0.30193104     0.19100
C965        C  0.69144148  0.64426627  0.35580074    -0.06730
C966        C  0.67085817  0.62124175  0.33969733    -0.17860
C967        C  0.68393457  0.59382454  0.32341015     0.10470
C968        C  0.71823806  0.58691490  0.32512262    -0.06650
C969        C  0.73633851  0.60336685  0.34888095    -0.17890
C970        C  0.72306896  0.63035710  0.36574139     0.10500
S971        S  0.65538292  0.56888445  0.30093537    -0.32850
S972        S  0.75009894  0.64428914  0.39813515    -0.32860
H973        H  0.74331916  0.67800981  0.39756008     0.28510
H974        H  0.67118363  0.53901840  0.30904144     0.28500
H975        H  0.64448556  0.62546557  0.33732594     0.19100
H976        H  0.76170232  0.59583298  0.35379832     0.19100
C977        C  0.65169856  0.34239080  0.35045762    -0.06730
C978        C  0.64267586  0.30959801  0.35841909    -0.17860
C979        C  0.61464868  0.29442667  0.34524279     0.10470
C980        C  0.59357795  0.31226814  0.32414685    -0.06650
C981        C  0.59865207  0.34625351  0.32138803    -0.17890
C982        C  0.62598582  0.36181593  0.33577675     0.10500
S983        S  0.61018310  0.25118663  0.35295129    -0.32850
S984        S  0.62398229  0.40610038  0.33572125    -0.32860
H985        H  0.63923900  0.40980115  0.36585953     0.28510
H986        H  0.57802441  0.25498561  0.36555802     0.28500
H987        H  0.66019854  0.29409477  0.37134948     0.19100
H988        H  0.58091081  0.36104891  0.30792929     0.19100
C989        C  0.69675790  0.38728197  0.34033398    -0.06730
C990        C  0.70664002  0.41383250  0.36014042    -0.17860
C991        C  0.72020408  0.44283607  0.34730995     0.10470
C992        C  0.72315024  0.44666506  0.31365610    -0.06650
C993        C  0.70967547  0.42254404  0.29377665    -0.17890
C994        C  0.69620578  0.39349864  0.30621240     0.10500
S995        S  0.73257971  0.47433021  0.37514640    -0.32850
S996        S  0.67864709  0.36538136  0.27717746    -0.32860
H997        H  0.67915790  0.38613945  0.25004256     0.28510
H998        H  0.72437193  0.50087950  0.35478187     0.28500
H999        H  0.70403704  0.41225008  0.38599931     0.19100
H1000       H  0.71080208  0.42605410  0.26793158     0.19100
C1001       C  0.71243009  0.32768166  0.33458083    -0.06730
C1002       C  0.69793404  0.30272546  0.31541793    -0.17860
C1003       C  0.71548630  0.27875199  0.29876900     0.10470
C1004       C  0.75028947  0.28247072  0.29421091    -0.06650
C1005       C  0.76554149  0.30552660  0.31463506    -0.17890
C1006       C  0.74779650  0.32958459  0.33153310     0.10500
S1007       S  0.68926457  0.24441638  0.28808904    -0.32850
S1008       S  0.77209724  0.36594888  0.33753355    -0.32860
H1009       H  0.76385361  0.37842096  0.30704344     0.28510
H1010       H  0.71218607  0.21877955  0.28999366     0.28500
H1011       H  0.67192231  0.30236873  0.31018948     0.19100
H1012       H  0.79205358  0.30791009  0.31384896     0.19100
C1013       C  0.65206896  0.18999108  0.19315349    -0.06730
C1014       C  0.62739688  0.20388733  0.17262396    -0.17860
C1015       C  0.59907427  0.21992524  0.18508520     0.10470
C1016       C  0.59435207  0.22125660  0.21872535    -0.06650
C1017       C  0.61569601  0.20323618  0.23854026    -0.17890
C1018       C  0.64379605  0.18740347  0.22689522     0.10500
S1019       S  0.57044455  0.23868522  0.15702815    -0.32850
S1020       S  0.66716786  0.16774662  0.25926095    -0.32860
H1021       H  0.69129434  0.15021341  0.24339803     0.28510
H1022       H  0.54203357  0.23336815  0.17587035     0.28500
H1023       H  0.63116247  0.20464685  0.14685157     0.19100
H1024       H  0.61129437  0.20279262  0.26432275     0.19100
C1025       C  0.72676804  0.08924417  0.20970232    -0.06730
C1026       C  0.69217315  0.09366770  0.21039703    -0.17860
C1027       C  0.67683252  0.12013827  0.19397140     0.10470
C1028       C  0.69704025  0.14577595  0.18128693    -0.06650
C1029       C  0.72944974  0.13594761  0.17263305    -0.17890
C1030       C  0.74471358  0.10849274  0.18713100     0.10500
S1031       S  0.63244341  0.11840970  0.18926225    -0.32850
S1032       S  0.78807142  0.10238428  0.17864192    -0.32860
H1033       H  0.78334940  0.07010843  0.16762873     0.28510
H1034       H  0.63246747  0.13523455  0.15959480     0.28500
H1035       H  0.67701228  0.07644774  0.22362671     0.19100
H1036       H  0.74471755  0.15225828  0.15862349     0.19100
C1037       C  0.69460170  0.19650374  0.14487026    -0.06730
C1038       C  0.68979355  0.17702087  0.11667744    -0.17860
C1039       C  0.69928703  0.18923992  0.08566777     0.10470
C1040       C  0.70590496  0.22334574  0.08194219    -0.06650
C1041       C  0.70074960  0.24234536  0.10914800    -0.17890
C1042       C  0.70860072  0.22766981  0.13849744     0.10500
S1043       S  0.70126831  0.16115832  0.05234816    -0.32850
S1044       S  0.75026478  0.23728913  0.15184338    -0.32860
H1045       H  0.75997285  0.20497354  0.15895017     0.28510
H1046       H  0.70054742  0.18529512  0.02803108     0.28500
H1047       H  0.68138540  0.15196101  0.11887191     0.19100
H1048       H  0.70073781  0.26852445  0.10713104     0.19100
C1049       C  0.70969343  0.20468710  0.20440614    -0.06730
C1050       C  0.73574215  0.18968986  0.22190071    -0.17860
C1051       C  0.75778089  0.20639297  0.24159540     0.10470
C1052       C  0.75334976  0.24103998  0.24650862    -0.06650
C1053       C  0.72816820  0.25655698  0.22835969    -0.17890
C1054       C  0.70495968  0.23932135  0.21016796     0.10500
S1055       S  0.79145296  0.18035660  0.25648662    -0.32850
S1056       S  0.66944655  0.26471244  0.19915785    -0.32860
H1057       H  0.66368364  0.25483833  0.16765862     0.28510
H1058       H  0.79353179  0.15933973  0.22969541     0.28500
H1059       H  0.73904456  0.16373080  0.22206708     0.19100
H1060       H  0.72452995  0.28282537  0.23096868     0.19100
C1061       C  0.81571677  0.21908358  0.45008887    -0.06730
C1062       C  0.84101374  0.19497722  0.45079960    -0.17860
C1063       C  0.85551909  0.18267114  0.42190510     0.10470
C1064       C  0.84495661  0.19537064  0.39118070    -0.06650
C1065       C  0.82148590  0.22178428  0.39297231    -0.17890
C1066       C  0.80536644  0.23128891  0.42044445     0.10500
S1067       S  0.88877785  0.15321275  0.42749126    -0.32850
S1068       S  0.77231944  0.26085946  0.41551052    -0.32860
H1069       H  0.74974859  0.24264048  0.43391957     0.28510
H1070       H  0.89415229  0.14456917  0.39551520     0.28500
H1071       H  0.84975179  0.18593127  0.47391771     0.19100
H1072       H  0.81617345  0.23799728  0.37308083     0.19100
C1073       C  0.71999935  0.31584355  0.59204722    -0.06730
C1074       C  0.69389895  0.29906478  0.60667336    -0.17860
C1075       C  0.67660545  0.31168776  0.63327987     0.10470
C1076       C  0.68843744  0.34085923  0.64934158    -0.06650
C1077       C  0.70809022  0.36086933  0.62878696    -0.17890
C1078       C  0.72546574  0.34829182  0.60213618     0.10500
S1079       S  0.63578981  0.29304180  0.63638689    -0.32850
S1080       S  0.75329819  0.37532669  0.58140693    -0.32860
H1081       H  0.78155733  0.35766515  0.59175877     0.28510
H1082       H  0.63271789  0.28917413  0.66962229     0.28500
H1083       H  0.68601845  0.27583555  0.59667529     0.19100
H1084       H  0.71089786  0.38670138  0.63317363     0.19100
C1085       C  0.72760024  0.32076550  0.45037908    -0.06730
C1086       C  0.69351087  0.31857334  0.44385157    -0.17860
C1087       C  0.67891028  0.33497715  0.41729430     0.10470
C1088       C  0.69936455  0.34855650  0.39235158    -0.06650
C1089       C  0.73183611  0.35570609  0.40289653    -0.17890
C1090       C  0.74620738  0.34215611  0.43073031     0.10500
S1091       S  0.63548576  0.34475784  0.42229074    -0.32850
S1092       S  0.78855354  0.35343667  0.43903633    -0.32860
H1093       H  0.80044639  0.32094961  0.44042648     0.28510
H1094       H  0.63858057  0.37627641  0.40907428     0.28500
H1095       H  0.67769967  0.30608814  0.46095051     0.19100
H1096       H  0.74625471  0.37343756  0.39058779     0.19100
C1097       C  0.38902723  0.69557363  0.69125186    -0.06730
C1098       C  0.39777470  0.68538326  0.72301669    -0.17860
C1099       C  0.42571382  0.69605126  0.73929634     0.10470
C1100       C  0.44691310  0.71858753  0.72438138    -0.06650
C1101       C  0.44094088  0.72719295  0.69229373    -0.17890
C1102       C  0.41293378  0.71625381  0.67521696     0.10500
S1103       S  0.43035648  0.68233316  0.78043435    -0.32850
S1104       S  0.40928023  0.73446843  0.63556438    -0.32860
H1105       H  0.44346954  0.73663323  0.62916856     0.28510
H1106       H  0.46082801  0.66648440  0.77426764     0.28500
H1107       H  0.38133734  0.66990953  0.73667660     0.19100
H1108       H  0.45769232  0.74431606  0.68089695     0.19100
C1109       C  0.64862509  0.69712749  0.69059818    -0.06730
C1110       C  0.62631124  0.67541718  0.70599920    -0.17860
C1111       C  0.59690986  0.68670049  0.72070724     0.10470
C1112       C  0.58869117  0.72051287  0.71997912    -0.06650
C1113       C  0.60772993  0.74110470  0.70056716    -0.17890
C1114       C  0.63690986  0.73023991  0.68564069     0.10500
S1115       S  0.57160685  0.65678764  0.74084868    -0.32850
S1116       S  0.65963361  0.76123472  0.66360563    -0.32860
H1117       H  0.63293125  0.78302416  0.65813787     0.28510
H1118       H  0.54130285  0.67196016  0.73237690     0.28500
H1119       H  0.63276231  0.64981397  0.70917930     0.19100
H1120       H  0.60100924  0.76683674  0.69887499     0.19100
C1121       C  0.64386035  0.68608444  0.34339069    -0.06730
C1122       C  0.61616144  0.69673420  0.36165127    -0.17860
C1123       C  0.58746393  0.70979732  0.34675475     0.10470
C1124       C  0.58537741  0.71149319  0.31274973    -0.06650
C1125       C  0.60988007  0.69560694  0.29471714    -0.17890
C1126       C  0.63891326  0.68317506  0.30914675     0.10500
S1127       S  0.55483908  0.72485576  0.37246368    -0.32850
S1128       S  0.67072008  0.66805548  0.28216381    -0.32860
H1129       H  0.65070991  0.66452734  0.25458350     0.28510
H1130       H  0.52894452  0.71768713  0.35084416     0.28500
H1131       H  0.61733955  0.69707583  0.38767441     0.19100
H1132       H  0.60784707  0.69589543  0.26869846     0.19100
C1133       C  0.44332613  0.71937243  0.30753020    -0.06730
C1134       C  0.44166446  0.71753548  0.34123715    -0.17860
C1135       C  0.41525510  0.70169260  0.35700328     0.10470
C1136       C  0.38685540  0.69099238  0.33882941    -0.06650
C1137       C  0.39302856  0.68703114  0.30548479    -0.17890
C1138       C  0.41921422  0.70239958  0.28963682     0.10500
S1139       S  0.42270405  0.69283125  0.39914770    -0.32850
S1140       S  0.41900419  0.70068628  0.24621696    -0.32860
H1141       H  0.42538683  0.73437814  0.24220857     0.28510
H1142       H  0.40346895  0.66438426  0.40011140     0.28500
H1143       H  0.46189614  0.72729515  0.35545154     0.19100
H1144       H  0.37798821  0.67144522  0.29093898     0.19100
C1145       C  0.19373030  0.83749557  0.64549378    -0.06730
C1146       C  0.20135259  0.80382031  0.64088948    -0.17860
C1147       C  0.21049933  0.79102198  0.61167645     0.10470
C1148       C  0.21751889  0.81182402  0.58583431    -0.06650
C1149       C  0.20729945  0.84484351  0.58808219    -0.17890
C1150       C  0.19197090  0.85679769  0.61652410     0.10500
S1151       S  0.21287895  0.74744408  0.60923128    -0.32850
S1152       S  0.16849793  0.89461165  0.61247286    -0.32860
H1153       H  0.15043818  0.89173074  0.64105664     0.28510
H1154       H  0.24455414  0.75239853  0.59714644     0.28500
H1155       H  0.19751453  0.78591065  0.65975240     0.19100
H1156       H  0.20923111  0.86060695  0.56711362     0.19100
C1157       C  0.08740932  0.82040162  0.71615990    -0.06730
C1158       C  0.10146778  0.80195748  0.69121029    -0.17860
C1159       C  0.12785305  0.81378349  0.67307291     0.10470
C1160       C  0.14463148  0.84283696  0.68312277    -0.06650
C1161       C  0.12448593  0.86493565  0.70065825    -0.17890
C1162       C  0.09753192  0.85358943  0.71907541     0.10500
S1163       S  0.12867843  0.79754958  0.63278023    -0.32850
S1164       S  0.08019891  0.88209115  0.74765048    -0.32860
H1165       H  0.04756358  0.87188527  0.74372833     0.28510
H1166       H  0.12990474  0.82873296  0.61827487     0.28500
H1167       H  0.09097649  0.77849331  0.68463272     0.19100
H1168       H  0.13181345  0.89016447  0.70365471     0.19100
C1169       C  0.20446446  0.82377904  0.70350753    -0.06730
C1170       C  0.18932216  0.79989008  0.72279230    -0.17860
C1171       C  0.20669586  0.78119658  0.74582093     0.10470
C1172       C  0.24260389  0.78156333  0.74736355    -0.06650
C1173       C  0.25740412  0.80358878  0.72542861    -0.17890
C1174       C  0.23982709  0.82366390  0.70386315     0.10500
S1175       S  0.17851447  0.76477438  0.77518438    -0.32850
S1176       S  0.26456578  0.84678152  0.67546533    -0.32860
H1177       H  0.29401020  0.84834629  0.69365959     0.28510
H1178       H  0.18220181  0.79200732  0.79560728     0.28500
H1179       H  0.16279498  0.79722923  0.72217406     0.19100
H1180       H  0.28303702  0.80859612  0.72683552     0.19100
C1181       C  0.19508500  0.88262809  0.69336104    -0.06730
C1182       C  0.21455105  0.90376010  0.67372845    -0.17860
C1183       C  0.22795805  0.93353401  0.68459431     0.10470
C1184       C  0.22331427  0.94323950  0.71669885    -0.06650
C1185       C  0.20433593  0.92319752  0.73656866    -0.17890
C1186       C  0.19084952  0.89351989  0.72636423     0.10500
S1187       S  0.25099814  0.95778484  0.65617152    -0.32850
S1188       S  0.17037557  0.87324001  0.75992322    -0.32860
H1189       H  0.15796355  0.84496071  0.74692767     0.28510
H1190       H  0.23874900  0.98809332  0.66738945     0.28500
H1191       H  0.22216846  0.89656439  0.65007119     0.19100
H1192       H  0.20103361  0.93018089  0.76156449     0.19100
C1193       C  0.84086356  0.19022158  0.65333142    -0.06730
C1194       C  0.80763428  0.20273849  0.65104442    -0.17860
C1195       C  0.79389405  0.21564154  0.62317123     0.10470
C1196       C  0.81239265  0.21611439  0.59488919    -0.06650
C1197       C  0.84394730  0.20117536  0.59487754    -0.17890
C1198       C  0.85742985  0.18665275  0.62316129     0.10500
S1199       S  0.75345424  0.23450093  0.62623864    -0.32850
S1200       S  0.89382503  0.16186599  0.61789213    -0.32860
H1201       H  0.87781266  0.13385330  0.62994296     0.28510
H1202       H  0.76575770  0.26549381  0.61765845     0.28500
H1203       H  0.79189752  0.20530710  0.67186869     0.19100
H1204       H  0.85764902  0.19981887  0.57250064     0.19100
C1205       C  0.81592688  0.08633756  0.72158874    -0.06730
C1206       C  0.85027539  0.08854044  0.71713043    -0.17860
C1207       C  0.86466402  0.11588166  0.70162068     0.10470
C1208       C  0.84416073  0.14397208  0.69389790    -0.06650
C1209       C  0.80955839  0.13820233  0.69408650    -0.17890
C1210       C  0.79547107  0.11062403  0.70772576     0.10500
S1211       S  0.90875866  0.11128782  0.69438133    -0.32850
S1212       S  0.75071286  0.10993670  0.70894470    -0.32860
H1213       H  0.74944071  0.10078839  0.74156584     0.28510
H1214       H  0.91374048  0.13762241  0.67385664     0.28500
H1215       H  0.86602432  0.06850575  0.72538632     0.19100
H1216       H  0.79208258  0.15670665  0.68717066     0.19100
C1217       C  0.83661092  0.20448663  0.71211344    -0.06730
C1218       C  0.82380805  0.19281145  0.74149214    -0.17860
C1219       C  0.81071609  0.21391122  0.76434858     0.10470
C1220       C  0.79851854  0.24516979  0.75382393    -0.06650
C1221       C  0.81084233  0.25717631  0.72430739    -0.17890
C1222       C  0.83305216  0.23902872  0.70594072     0.10500
S1223       S  0.81005737  0.19788696  0.80527763    -0.32850
S1224       S  0.85349918  0.26120077  0.67375509    -0.32860
H1225       H  0.85053073  0.29277789  0.68715761     0.28510
H1226       H  0.80149707  0.22638209  0.82194505     0.28500
H1227       H  0.82541262  0.16728876  0.74810220     0.19100
H1228       H  0.80607079  0.28229863  0.71712632     0.19100
C1229       C  0.89171030  0.18890171  0.69830804    -0.06730
C1230       C  0.91085348  0.21067813  0.67944405    -0.17860
C1231       C  0.93849521  0.22758757  0.69187311     0.10470
C1232       C  0.94911722  0.22198078  0.72402449    -0.06650
C1233       C  0.93276575  0.19801163  0.74170310    -0.17890
C1234       C  0.90482234  0.18178472  0.73014677     0.10500
S1235       S  0.95743461  0.25728828  0.66565698    -0.32850
S1236       S  0.88699025  0.15423976  0.75963912    -0.32860
H1237       H  0.91692714  0.14452596  0.77456558     0.28510
H1238       H  0.98997005  0.24959806  0.67498517     0.28500
H1239       H  0.90285959  0.21732326  0.65551243     0.19100
H1240       H  0.94068166  0.19321028  0.76624468     0.19100
C1241       C  0.65242369  0.84151182  0.18956367    -0.06730
C1242       C  0.63007082  0.86143634  0.20751826    -0.17860
C1243       C  0.60077535  0.84899678  0.22139985     0.10470
C1244       C  0.59156158  0.81606750  0.21606797    -0.06650
C1245       C  0.60923073  0.79868708  0.19271132    -0.17890
C1246       C  0.63852265  0.81072765  0.17881932     0.10500
S1247       S  0.57608988  0.87669913  0.24529605    -0.32850
S1248       S  0.65864595  0.78199837  0.15209158    -0.32860
H1249       H  0.62954728  0.76729805  0.14033537     0.28510
H1250       H  0.54549520  0.86432123  0.23457396     0.28500
H1251       H  0.63520550  0.88694316  0.21178784     0.19100
H1252       H  0.60141639  0.77403752  0.18685033     0.19100
C1253       C  0.70413418  0.83976951  0.15291503    -0.06730
C1254       C  0.72770709  0.81346972  0.15099199    -0.17860
C1255       C  0.73440907  0.79720879  0.12252413     0.10470
C1256       C  0.72604387  0.81179581  0.09318611    -0.06650
C1257       C  0.70276586  0.83760015  0.09329497    -0.17890
C1258       C  0.68952078  0.84969109  0.12262798     0.10500
S1259       S  0.74608410  0.75447938  0.12582002    -0.32850
S1260       S  0.65389405  0.87675125  0.11870510    -0.32860
H1261       H  0.65617204  0.89262192  0.14839870     0.28510
H1262       H  0.72196238  0.74358303  0.10387946     0.28500
H1263       H  0.73757395  0.80096270  0.17178901     0.19100
H1264       H  0.69353344  0.84710171  0.07052955     0.19100
C1265       C  0.71100008  0.83048412  0.21362503    -0.06730
C1266       C  0.69765825  0.80157396  0.22682687    -0.17860
C1267       C  0.71750368  0.77777444  0.24153672     0.10470
C1268       C  0.74838779  0.78682975  0.25543231    -0.06650
C1269       C  0.76112009  0.81726752  0.24503727    -0.17890
C1270       C  0.74502170  0.83667941  0.22181095     0.10500
S1271       S  0.70174902  0.73653908  0.24080023    -0.32850
S1272       S  0.77081013  0.86598972  0.20102464    -0.32860
H1273       H  0.80183969  0.85238221  0.20954745     0.28510
H1274       H  0.67764257  0.74112385  0.21654878     0.28500
H1275       H  0.67228227  0.79508175  0.22385103     0.19100
H1276       H  0.78527695  0.82511233  0.25303933     0.19100
C1277       C  0.72277142  0.94781259  0.22575501    -0.06730
C1278       C  0.72659851  0.94188709  0.19284666    -0.17860
C1279       C  0.71562454  0.91274649  0.17797434     0.10470
C1280       C  0.69835271  0.88806806  0.19656989    -0.06650
C1281       C  0.69299020  0.89619551  0.22952000    -0.17890
C1282       C  0.70453577  0.92496807  0.24392983     0.10500
S1283       S  0.72972541  0.90812314  0.13695921    -0.32850
S1284       S  0.69797563  0.92911066  0.28661447    -0.32860
H1285       H  0.67909964  0.95810533  0.28295951     0.28510
H1286       H  0.75764615  0.92855924  0.13876718     0.28500
H1287       H  0.73990895  0.95989494  0.17877075     0.19100
H1288       H  0.68133976  0.87847357  0.24528179     0.19100
C1289       C  0.58745516  0.22157654  0.81325033    -0.06730
C1290       C  0.59010290  0.21399927  0.84619834    -0.17860
C1291       C  0.61793699  0.19663475  0.85851417     0.10470
C1292       C  0.64496327  0.18839806  0.83766013    -0.06650
C1293       C  0.63890965  0.19269491  0.80433565    -0.17890
C1294       C  0.61216258  0.21022161  0.79215339     0.10500
S1295       S  0.61513767  0.18308402  0.89981870    -0.32850
S1296       S  0.61246492  0.22109791  0.74957847    -0.32860
H1297       H  0.64055591  0.20286311  0.74017434     0.28510
H1298       H  0.63505925  0.15507652  0.89547414     0.28500
H1299       H  0.57000622  0.22073223  0.86219702     0.19100
H1300       H  0.65728490  0.18632715  0.78720948     0.19100
C1301       C  0.69383939  0.14493143  0.84310013    -0.06730
C1302       C  0.72855638  0.13932115  0.84565953    -0.17860
C1303       C  0.74388650  0.11113097  0.83354893     0.10470
C1304       C  0.72449841  0.08639069  0.81919842    -0.06650
C1305       C  0.68982283  0.08920570  0.82084543    -0.17890
C1306       C  0.67407374  0.11749030  0.83357561     0.10500
S1307       S  0.78858274  0.11117965  0.83238145    -0.32850
S1308       S  0.62937198  0.11702543  0.83649398    -0.32860
H1309       H  0.62467954  0.08392033  0.82826924     0.28510
H1310       H  0.79000194  0.10490691  0.79907761     0.28500
H1311       H  0.74437963  0.15885154  0.85424446     0.19100
H1312       H  0.67504422  0.06936415  0.81136523     0.19100
C1313       C  0.70329457  0.20338702  0.82401811    -0.06730
C1314       C  0.69943638  0.23792558  0.82496499    -0.17860
C1315       C  0.71992630  0.25929810  0.80797604     0.10470
C1316       C  0.74668900  0.24656830  0.78950132    -0.06650
C1317       C  0.74108223  0.21416671  0.77923471    -0.17890
C1318       C  0.72087573  0.19236339  0.79571101     0.10500
S1319       S  0.70554114  0.30123105  0.80580997    -0.32850
S1320       S  0.71734149  0.15404738  0.77361008    -0.32860
H1321       H  0.68479034  0.14457132  0.77913869     0.28510
H1322       H  0.68817998  0.29410198  0.77733084     0.28500
H1323       H  0.67788342  0.24884985  0.83552951     0.19100
H1324       H  0.75156853  0.20544136  0.75695119     0.19100
C1325       C  0.71719991  0.22332800  0.94074274    -0.06730
C1326       C  0.72128665  0.18957427  0.93527067    -0.17860
C1327       C  0.70589212  0.17366860  0.90895462     0.10470
C1328       C  0.68984325  0.19280417  0.88406013    -0.06650
C1329       C  0.68150261  0.22521214  0.89334749    -0.17890
C1330       C  0.69508501  0.24065946  0.92025525     0.10500
S1331       S  0.70067205  0.12968108  0.91313656    -0.32850
S1332       S  0.68321571  0.28295738  0.92611688    -0.32860
H1333       H  0.66706588  0.27617744  0.95539146     0.28510
H1334       H  0.72544346  0.12423680  0.93654370     0.28500
H1335       H  0.73496390  0.17523314  0.95292895     0.19100
H1336       H  0.66261078  0.23877175  0.88062019     0.19100
C1337       C  0.18601168  0.64266659  0.85425470    -0.06730
C1338       C  0.16902701  0.62779933  0.82818726    -0.17860
C1339       C  0.18448295  0.60403947  0.80871916     0.10470
C1340       C  0.21563686  0.59082945  0.81808218    -0.06650
C1341       C  0.22688149  0.59820331  0.84921095    -0.17890
C1342       C  0.21086488  0.62173792  0.86821347     0.10500
S1343       S  0.16355566  0.59303729  0.77200088    -0.32850
S1344       S  0.21827175  0.61745628  0.91086262    -0.32860
H1345       H  0.18429566  0.61916824  0.91829641     0.28510
H1346       H  0.18973812  0.60392506  0.75246768     0.28500
H1347       H  0.14428120  0.63525813  0.82154330     0.19100
H1348       H  0.24749428  0.58453485  0.85958623     0.19100
C1349       C  0.14679010  0.69511569  0.85033058    -0.06730
C1350       C  0.14084329  0.69452184  0.81621754    -0.17860
C1351       C  0.11488699  0.71010224  0.80025254     0.10470
C1352       C  0.09122168  0.72764846  0.81777443    -0.06650
C1353       C  0.09427647  0.72807990  0.85134393    -0.17890
C1354       C  0.12048027  0.71169199  0.86788115     0.10500
S1355       S  0.11528693  0.70809600  0.75667031    -0.32850
S1356       S  0.11488313  0.71345508  0.91058527    -0.32860
H1357       H  0.10375371  0.68079650  0.91171108     0.28510
H1358       H  0.10890168  0.74183828  0.75223204     0.28500
H1359       H  0.15755184  0.68240487  0.80008897     0.19100
H1360       H  0.07526483  0.74076522  0.86504060     0.19100
C1361       C  0.20522923  0.70273183  0.83808420    -0.06730
C1362       C  0.21640396  0.69040825  0.80813289    -0.17860
C1363       C  0.23075941  0.71086993  0.78501417     0.10470
C1364       C  0.24478394  0.74112552  0.79491816    -0.06650
C1365       C  0.23476137  0.75317230  0.82517167    -0.17890
C1366       C  0.21274865  0.73650831  0.84475114     0.10500
S1367       S  0.22827703  0.69878397  0.74317068    -0.32850
S1368       S  0.19813136  0.76135349  0.87813293    -0.32860
H1369       H  0.16988590  0.74426328  0.88575249     0.28510
H1370       H  0.20732384  0.67167841  0.74749220     0.28500
H1371       H  0.21117845  0.66563170  0.80111214     0.19100
H1372       H  0.24102153  0.77772515  0.83262086     0.19100
C1373       C  0.22685451  0.71465287  0.95259915    -0.06730
C1374       C  0.24745292  0.70804678  0.92677548    -0.17860
C1375       C  0.23558397  0.69330145  0.89896596     0.10470
C1376       C  0.20021275  0.68768087  0.89495237    -0.06650
C1377       C  0.18244002  0.68672101  0.92399177    -0.17890
C1378       C  0.19449131  0.70171619  0.95228929     0.10500
S1379       S  0.26905501  0.68313705  0.87162628    -0.32850
S1380       S  0.16822505  0.70234296  0.98730694    -0.32860
H1381       H  0.19410860  0.70339832  0.01006542     0.28510
H1382       H  0.25362492  0.66104610  0.85126373     0.28500
H1383       H  0.27332075  0.71515789  0.92799814     0.19100
H1384       H  0.15992922  0.67282013  0.92503026     0.19100
C1385       C  0.81052181  0.59366372  0.21389548    -0.06730
C1386       C  0.84507357  0.59684935  0.21632314    -0.17860
C1387       C  0.86197932  0.62250730  0.20097774     0.10470
C1388       C  0.84324845  0.64860355  0.18635166    -0.06650
C1389       C  0.81049323  0.64045160  0.17687702    -0.17890
C1390       C  0.79369943  0.61404185  0.19119012     0.10500
S1391       S  0.90668634  0.61822336  0.20046882    -0.32850
S1392       S  0.75010291  0.61073835  0.18214585    -0.32860
H1393       H  0.74016995  0.61091735  0.21459548     0.28510
H1394       H  0.91214029  0.63701412  0.17275552     0.28500
H1395       H  0.85923091  0.57891578  0.23010579     0.19100
H1396       H  0.79597574  0.65792543  0.16290673     0.19100
C1397       C  0.82102547  0.72300844  0.08857403    -0.06730
C1398       C  0.83413871  0.69112122  0.09130075    -0.17860
C1399       C  0.84941867  0.68027875  0.12050523     0.10470
C1400       C  0.84572625  0.69930637  0.14950464    -0.06650
C1401       C  0.83097237  0.73073591  0.14463678    -0.17890
C1402       C  0.82455022  0.74400306  0.11471180     0.10500
S1403       S  0.87294183  0.64246341  0.11928318    -0.32850
S1404       S  0.81889804  0.78805561  0.11227378    -0.32860
H1405       H  0.84347193  0.79189613  0.08862173     0.28510
H1406       H  0.87320009  0.63886271  0.08558392     0.28500
H1407       H  0.83357117  0.67535120  0.07037313     0.19100
H1408       H  0.82389297  0.74710986  0.16312477     0.19100
C1409       C  0.83121592  0.70653603  0.20966089    -0.06730
C1410       C  0.80617317  0.69104961  0.22779447    -0.17860
C1411       C  0.78452411  0.70736734  0.24832525     0.10470
C1412       C  0.78865062  0.74155947  0.25405690    -0.06650
C1413       C  0.81236073  0.75748965  0.23481808    -0.17890
C1414       C  0.83601973  0.74060192  0.21696592     0.10500
S1415       S  0.75230308  0.68132253  0.26384049    -0.32850
S1416       S  0.87152444  0.76594797  0.20669333    -0.32860
H1417       H  0.87736996  0.75678520  0.17491285     0.28510
H1418       H  0.74691166  0.66464921  0.23472841     0.28500
H1419       H  0.80441103  0.66492587  0.22899885     0.19100
H1420       H  0.81619467  0.78347792  0.23750438     0.19100
C1421       C  0.88933828  0.69183372  0.19766188    -0.06730
C1422       C  0.91383752  0.70560057  0.17741018    -0.17860
C1423       C  0.94267895  0.72017712  0.19015974     0.10470
C1424       C  0.94817314  0.72013632  0.22384453    -0.06650
C1425       C  0.92652228  0.70251762  0.24336964    -0.17890
C1426       C  0.89774184  0.68825594  0.23124246     0.10500
S1427       S  0.97093521  0.73907723  0.16232188    -0.32850
S1428       S  0.87185831  0.66750664  0.26054918    -0.32860
H1429       H  0.89518939  0.66499175  0.28572874     0.28510
H1430       H  0.99967723  0.73179406  0.18038739     0.28500
H1431       H  0.90957388  0.70735215  0.15171790     0.19100
H1432       H  0.93115425  0.70160644  0.26906675     0.19100
C1433       C  0.19750691  0.84091740  0.38590941    -0.06730
C1434       C  0.18758490  0.85435819  0.41574586    -0.17860
C1435       C  0.20286785  0.84442471  0.44499980     0.10470
C1436       C  0.22735446  0.81937895  0.44439933    -0.06650
C1437       C  0.23272166  0.80258195  0.41600076    -0.17890
C1438       C  0.21512305  0.81005646  0.38831789     0.10500
S1439       S  0.18967665  0.86404872  0.48171877    -0.32850
S1440       S  0.21169738  0.77443617  0.36226743    -0.32860
H1441       H  0.18204473  0.77950967  0.34590752     0.28510
H1442       H  0.21625282  0.85353936  0.50122908     0.28500
H1443       H  0.16904272  0.87373636  0.41606399     0.19100
H1444       H  0.24791533  0.78056616  0.41661584     0.19100
C1445       C  0.08871507  0.81712462  0.32497700    -0.06730
C1446       C  0.09452391  0.85080682  0.32020957    -0.17860
C1447       C  0.12111494  0.86670574  0.33568140     0.10470
C1448       C  0.14616995  0.84761809  0.35155208    -0.06650
C1449       C  0.13548224  0.81643364  0.36209095    -0.17890
C1450       C  0.10782344  0.80093069  0.34898591     0.10500
S1451       S  0.11603099  0.91030847  0.34160393    -0.32850
S1452       S  0.09977529  0.76000482  0.36347392    -0.32860
H1453       H  0.06704125  0.76776099  0.37260898     0.28510
H1454       H  0.13364662  0.91069858  0.37094464     0.28500
H1455       H  0.07723714  0.86521062  0.30583740     0.19100
H1456       H  0.14918821  0.80297202  0.38020497     0.19100
C1457       C  0.20524434  0.83803099  0.32619987    -0.06730
C1458       C  0.18941654  0.82156812  0.30115891    -0.17860
C1459       C  0.20654452  0.80166268  0.27921889     0.10470
C1460       C  0.24263129  0.79802986  0.28111768    -0.06650
C1461       C  0.25771406  0.82098703  0.30162870    -0.17890
C1462       C  0.24051795  0.83927187  0.32468649     0.10500
S1463       S  0.17814059  0.78634729  0.24901200    -0.32850
S1464       S  0.26552198  0.86183027  0.35320244    -0.32860
H1465       H  0.29407671  0.84180856  0.35144911     0.28510
H1466       H  0.15278002  0.77742384  0.27054865     0.28500
H1467       H  0.16281784  0.82374676  0.29879308     0.19100
H1468       H  0.28372584  0.82320759  0.30226386     0.19100
C1469       C  0.19210777  0.89283446  0.34400406    -0.06730
C1470       C  0.18395282  0.90160656  0.31159357    -0.17860
C1471       C  0.19620777  0.92926569  0.29593992     0.10470
C1472       C  0.21826746  0.95001519  0.31228148    -0.06650
C1473       C  0.22425209  0.94401787  0.34503870    -0.17890
C1474       C  0.21116037  0.91672917  0.36130948     0.10500
S1475       S  0.18361575  0.93504104  0.25454138    -0.32850
S1476       S  0.22291229  0.91510189  0.40296301    -0.32860
H1477       H  0.19259394  0.92925050  0.41265495     0.28510
H1478       H  0.21574649  0.93983931  0.24280818     0.28500
H1479       H  0.16912710  0.88525014  0.29710333     0.19100
H1480       H  0.24004092  0.96074859  0.35821957     0.19100
C1481       C  0.84220529  0.85225403  0.64081709    -0.06730
C1482       C  0.86017294  0.84532287  0.61256092    -0.17860
C1483       C  0.84578024  0.82885314  0.58627228     0.10470
C1484       C  0.81178615  0.82098838  0.58706606    -0.06650
C1485       C  0.79248522  0.83434077  0.61180833    -0.17890
C1486       C  0.80683469  0.85088555  0.63790791     0.10500
S1487       S  0.87174055  0.81954548  0.55219719    -0.32850
S1488       S  0.77896016  0.87174401  0.66531846    -0.32860
H1489       H  0.74878908  0.86113602  0.65200541     0.28510
H1490       H  0.84655512  0.82343149  0.52892267     0.28500
H1491       H  0.88563615  0.85294891  0.61087555     0.19100
H1492       H  0.76585505  0.83126327  0.61093489     0.19100
C1493       C  0.84199145  0.83473698  0.69875074    -0.06730
C1494       C  0.82218269  0.84842003  0.72359753    -0.17860
C1495       C  0.80694999  0.83054518  0.74755156     0.10470
C1496       C  0.80322233  0.79625078  0.74315799    -0.06650
C1497       C  0.82487924  0.78140947  0.72088698    -0.17890
C1498       C  0.84162652  0.79960673  0.69720364     0.10500
S1499       S  0.79554160  0.85555832  0.78207779    -0.32850
S1500       S  0.85056935  0.77664058  0.66103565    -0.32860
H1501       H  0.85769600  0.74651327  0.67636671     0.28510
H1502       H  0.79972860  0.83243576  0.80665019     0.28500
H1503       H  0.81518041  0.87380692  0.72393523     0.19100
H1504       H  0.82429626  0.75515174  0.71847503     0.19100
C1505       C  0.94896574  0.82091850  0.71437136    -0.06730
C1506       C  0.93194102  0.80179453  0.69190400    -0.17860
C1507       C  0.91108891  0.81627950  0.66900410     0.10470
C1508       C  0.89894560  0.84876350  0.67401948    -0.06650
C1509       C  0.92199204  0.86894373  0.69020695    -0.17890
C1510       C  0.94528406  0.85541126  0.71192336     0.10500
S1511       S  0.91866411  0.79988542  0.62935974    -0.32850
S1512       S  0.96994919  0.88327181  0.73492046    -0.32860
H1513       H  0.99875704  0.86942426  0.72174992     0.28510
H1514       H  0.93662700  0.82765464  0.61953136     0.28500
H1515       H  0.93826290  0.77603897  0.68919634     0.19100
H1516       H  0.91999773  0.89538538  0.68870681     0.19100
C1517       C  0.85614914  0.89525767  0.68552299    -0.06730
C1518       C  0.86538093  0.90281753  0.71780444    -0.17860
C1519       C  0.84916034  0.92723674  0.73543436     0.10470
C1520       C  0.82463318  0.94700861  0.72027123    -0.06650
C1521       C  0.82146001  0.94488695  0.68656800    -0.17890
C1522       C  0.83864835  0.92068352  0.66885722     0.10500
S1523       S  0.85719690  0.92736286  0.77825571    -0.32850
S1524       S  0.83924223  0.92562046  0.62574765    -0.32860
H1525       H  0.87152630  0.91262586  0.62276847     0.28510
H1526       H  0.82349714  0.92513078  0.78668419     0.28500
H1527       H  0.87980441  0.88526555  0.73172871     0.19100
H1528       H  0.80593988  0.96251839  0.67384627     0.19100
C1529       C  0.83594373  0.39409043  0.18374171    -0.06730
C1530       C  0.85849533  0.41725125  0.19678026    -0.17860
C1531       C  0.84738550  0.44644541  0.21173103     0.10470
C1532       C  0.81340019  0.45520054  0.21068702    -0.06650
C1533       C  0.79282330  0.43691652  0.19080615    -0.17890
C1534       C  0.80309561  0.40715626  0.17741606     0.10500
S1535       S  0.87742445  0.47112688  0.23231711    -0.32850
S1536       S  0.77065765  0.38894038  0.15412575    -0.32860
H1537       H  0.78842545  0.39243153  0.12520475     0.28510
H1538       H  0.86749549  0.45955193  0.26276248     0.28500
H1539       H  0.88474535  0.41196966  0.19775353     0.19100
H1540       H  0.76720603  0.44459464  0.18753960     0.19100
C1541       C  0.83431620  0.34422017  0.14654935    -0.06730
C1542       C  0.80432235  0.32635104  0.14451722    -0.17860
C1543       C  0.79056679  0.31647193  0.11599371     0.10470
C1544       C  0.80898140  0.31667585  0.08786805    -0.06650
C1545       C  0.83790982  0.33591232  0.08754812    -0.17890
C1546       C  0.84911125  0.35213148  0.11601866     0.10500
S1547       S  0.74688776  0.31076660  0.11591686    -0.32850
S1548       S  0.88330081  0.38005984  0.11104746    -0.32860
H1549       H  0.88741366  0.38937810  0.14305781     0.28510
H1550       H  0.75156363  0.28170280  0.09878722     0.28500
H1551       H  0.78791223  0.32379425  0.16486077     0.19100
H1552       H  0.85097148  0.33938851  0.06505014     0.19100
C1553       C  0.79046489  0.28869798  0.24519212    -0.06730
C1554       C  0.78423056  0.32289524  0.24666327    -0.17860
C1555       C  0.80438936  0.34573587  0.23104929     0.10470
C1556       C  0.82672902  0.33497570  0.20681204    -0.06650
C1557       C  0.83102202  0.30073760  0.20367763    -0.17890
C1558       C  0.81337472  0.27794368  0.22133675     0.10500
S1559       S  0.80580936  0.38534911  0.24990249    -0.32850
S1560       S  0.82353784  0.23569447  0.21305035    -0.32860
H1561       H  0.85643942  0.24058268  0.20295183     0.28510
H1562       H  0.77109034  0.38902250  0.25130898     0.28500
H1563       H  0.76500436  0.33279693  0.26176221     0.19100
H1564       H  0.84741760  0.29143384  0.18539506     0.19100
C1565       C  0.94080993  0.31954030  0.22386390    -0.06730
C1566       C  0.93311161  0.31135511  0.19202551    -0.17860
C1567       C  0.90460342  0.32330402  0.17593492     0.10470
C1568       C  0.88300007  0.34707064  0.19125927    -0.06650
C1569       C  0.89262801  0.35603430  0.22315150    -0.17890
C1570       C  0.92025262  0.34265165  0.23936683     0.10500
S1571       S  0.89546112  0.30080498  0.13955004    -0.32850
S1572       S  0.92548121  0.35365625  0.28108350    -0.32860
H1573       H  0.92860878  0.32095095  0.29182112     0.28510
H1574       H  0.92853888  0.29583965  0.12982274     0.28500
H1575       H  0.94851030  0.29313312  0.18022793     0.19100
H1576       H  0.87634191  0.37145215  0.23728216     0.19100
C1577       C  0.19987530  0.39005067  0.84167500    -0.06730
C1578       C  0.20964859  0.39290476  0.80904971    -0.17860
C1579       C  0.21997209  0.42190243  0.79526162     0.10470
C1580       C  0.22398575  0.44984157  0.81428047    -0.06650
C1581       C  0.21163658  0.44917337  0.84599072    -0.17890
C1582       C  0.19713641  0.42029782  0.85888656     0.10500
S1583       S  0.22655590  0.42170225  0.75256392    -0.32850
S1584       S  0.17649728  0.42396297  0.89711397    -0.32860
H1585       H  0.15266561  0.40017145  0.89023766     0.28510
H1586       H  0.25962654  0.43139061  0.75590328     0.28500
H1587       H  0.20857211  0.37187819  0.79321015     0.19100
H1588       H  0.21198850  0.47142599  0.86019251     0.19100
C1589       C  0.09713691  0.31586635  0.81810454    -0.06730
C1590       C  0.12217117  0.32654134  0.79757523    -0.17860
C1591       C  0.14621707  0.34816176  0.80856982     0.10470
C1592       C  0.15443694  0.34866526  0.84217027    -0.06650
C1593       C  0.12728408  0.34184817  0.86255445    -0.17890
C1594       C  0.09896956  0.32536123  0.85088381     0.10500
S1595       S  0.14201536  0.38558449  0.78536829    -0.32850
S1596       S  0.06548588  0.31886036  0.87824293    -0.32860
H1597       H  0.04303718  0.33504828  0.85742732     0.28510
H1598       H  0.13953437  0.40613470  0.81247093     0.28500
H1599       H  0.11892622  0.32369115  0.77177523     0.19100
H1600       H  0.12786629  0.34880681  0.88764413     0.19100
C1601       C  0.21551018  0.32875796  0.83800982    -0.06730
C1602       C  0.24767415  0.33900555  0.82961937    -0.17860
C1603       C  0.26571217  0.32447832  0.80501810     0.10470
C1604       C  0.25529875  0.29322828  0.79308027    -0.06650
C1605       C  0.23014454  0.27751894  0.81100579    -0.17890
C1606       C  0.20846165  0.29525891  0.83111339     0.10500
S1607       S  0.29892254  0.35091765  0.79101370    -0.32850
S1608       S  0.17240463  0.27397738  0.84586026    -0.32860
H1609       H  0.17742531  0.24387977  0.83004239     0.28510
H1610       H  0.32550373  0.32910060  0.78829912     0.28500
H1611       H  0.25682358  0.36205289  0.83807065     0.19100
H1612       H  0.22499055  0.25202581  0.80606262     0.19100
C1613       C  0.19989866  0.34808452  0.89162969    -0.06730
C1614       C  0.18340221  0.32227793  0.90805145    -0.17860
C1615       C  0.19370608  0.30902446  0.93764411     0.10470
C1616       C  0.22393701  0.31882241  0.95157055    -0.06650
C1617       C  0.24054666  0.34485818  0.93684147    -0.17890
C1618       C  0.22946072  0.35962368  0.90785093     0.10500
S1619       S  0.16731435  0.27824838  0.95516571    -0.32850
S1620       S  0.25670418  0.39124585  0.89287543    -0.32860
H1621       H  0.26921994  0.40140923  0.92289985     0.28510
H1622       H  0.16904416  0.29175923  0.98630281     0.28500
H1623       H  0.16287380  0.30983392  0.89758906     0.19100
H1624       H  0.26383215  0.35267842  0.94723996     0.19100
C1625       C  0.84746416  0.65073058  0.84224114    -0.06730
C1626       C  0.85317199  0.64372637  0.80913263    -0.17860
C1627       C  0.83984516  0.61616736  0.79372276     0.10470
C1628       C  0.82158069  0.59289719  0.81158935    -0.06650
C1629       C  0.82019423  0.59667775  0.84504062    -0.17890
C1630       C  0.83403433  0.62399159  0.86067084     0.10500
S1631       S  0.84400247  0.61454209  0.75051377    -0.32850
S1632       S  0.83681052  0.61977309  0.90379433    -0.32860
H1633       H  0.86617406  0.60097958  0.90177660     0.28510
H1634       H  0.81031723  0.60788203  0.74480394     0.28500
H1635       H  0.86428611  0.66231388  0.79397704     0.19100
H1636       H  0.80869968  0.57764095  0.85938886     0.19100
C1637       C  0.82842455  0.71095462  0.83171229    -0.06730
C1638       C  0.80676256  0.69715077  0.80842420    -0.17860
C1639       C  0.79587287  0.71444076  0.78114112     0.10470
C1640       C  0.80004280  0.74888745  0.77961405    -0.06650
C1641       C  0.82232888  0.76231094  0.80208049    -0.17890
C1642       C  0.83012103  0.74593235  0.83062621     0.10500
S1643       S  0.78517868  0.68907703  0.74728685    -0.32850
S1644       S  0.82047639  0.77291472  0.86399281    -0.32860
H1645       H  0.81878245  0.75055601  0.88887495     0.28510
H1646       H  0.79838517  0.70924391  0.72337809     0.28500
H1647       H  0.79908259  0.67191619  0.81009607     0.19100
H1648       H  0.82717295  0.78820624  0.80130552     0.19100
C1649       C  0.80987622  0.71506139  0.94593793    -0.06730
C1650       C  0.84410808  0.70908477  0.94440393    -0.17860
C1651       C  0.85833543  0.69468838  0.91699702     0.10470
C1652       C  0.83854000  0.69106985  0.88873894    -0.06650
C1653       C  0.80376841  0.69065915  0.89316194    -0.17890
C1654       C  0.78932766  0.70256443  0.92130803     0.10500
S1655       S  0.90078032  0.68044809  0.92069457    -0.32850
S1656       S  0.74468283  0.70392812  0.92273148    -0.32860
H1657       H  0.74305189  0.73666019  0.93318522     0.28510
H1658       H  0.89838581  0.65619768  0.89686905     0.28500
H1659       H  0.85970813  0.71511162  0.96482737     0.19100
H1660       H  0.78759223  0.68359599  0.87352985     0.19100
C1661       C  0.94661084  0.72723984  0.81951973    -0.06730
C1662       C  0.92650882  0.74642936  0.83923185    -0.17860
C1663       C  0.90002676  0.73310645  0.85642067     0.10470
C1664       C  0.88861920  0.70048073  0.84920771    -0.06650
C1665       C  0.91258006  0.68025058  0.83373448    -0.17890
C1666       C  0.94096228  0.69310091  0.81888435     0.10500
S1667       S  0.88885088  0.75631813  0.89185113    -0.32850
S1668       S  0.96915012  0.66444256  0.80018404    -0.32860
H1669       H  0.99797089  0.68090249  0.81013837     0.28510
H1670       H  0.91592093  0.77789465  0.89270425     0.28500
H1671       H  0.93230537  0.77215491  0.84221726     0.19100
H1672       H  0.90966231  0.65397658  0.83280061     0.19100
C1673       C  0.38622752  0.18726843  0.83960103    -0.06730
C1674       C  0.40935794  0.20368100  0.85937725    -0.17860
C1675       C  0.43729535  0.21937388  0.84647899     0.10470
C1676       C  0.44355751  0.21813188  0.81301528    -0.06650
C1677       C  0.42346965  0.19848553  0.79393033    -0.17890
C1678       C  0.39538962  0.18310718  0.80620831     0.10500
S1679       S  0.46346206  0.24153764  0.87385341    -0.32850
S1680       S  0.37087213  0.16107917  0.77671136    -0.32860
H1681       H  0.39640916  0.15506218  0.75442019     0.28510
H1682       H  0.45026091  0.27208185  0.86403697     0.28500
H1683       H  0.40418740  0.20797343  0.88442834     0.19100
H1684       H  0.42851990  0.19690768  0.76836778     0.19100
C1685       C  0.34001527  0.14308888  0.84789791    -0.06730
C1686       C  0.30625307  0.13538648  0.85313286    -0.17860
C1687       C  0.29109612  0.10882133  0.83800172     0.10470
C1688       C  0.31040738  0.08682434  0.81950735    -0.06650
C1689       C  0.34493506  0.08999181  0.82046857    -0.17890
C1690       C  0.36024092  0.11658304  0.83593622     0.10500
S1691       S  0.24641925  0.10752397  0.83991183    -0.32850
S1692       S  0.40500541  0.11327106  0.83797206    -0.32860
H1693       H  0.40996781  0.13371493  0.86420270     0.28510
H1694       H  0.24208407  0.10518078  0.80635132     0.28500
H1695       H  0.28993435  0.15279588  0.86461157     0.19100
H1696       H  0.36024777  0.07149595  0.80892611     0.19100
C1697       C  0.29156433  0.24619028  0.78613931    -0.06730
C1698       C  0.31497968  0.25823222  0.80826696    -0.17860
C1699       C  0.33369414  0.23837890  0.82867555     0.10470
C1700       C  0.33050459  0.20348272  0.82720488    -0.06650
C1701       C  0.30717452  0.19128820  0.80508311    -0.17890
C1702       C  0.28621710  0.21173834  0.78711203     0.10500
S1703       S  0.35935690  0.25973421  0.85769258    -0.32850
S1704       S  0.25068100  0.19168235  0.77116623    -0.32860
H1705       H  0.24630272  0.17023185  0.79744020     0.28510
H1706       H  0.34109610  0.28932101  0.85845599     0.28500
H1707       H  0.31860182  0.28400795  0.81012369     0.19100
H1708       H  0.30418484  0.16533454  0.80162668     0.19100
C1709       C  0.33830508  0.19171112  0.88633582    -0.06730
C1710       C  0.30679178  0.20781470  0.88905023    -0.17860
C1711       C  0.29518883  0.22183300  0.91718292     0.10470
C1712       C  0.31338226  0.21857632  0.94569056    -0.06650
C1713       C  0.34248764  0.19930678  0.94534449    -0.17890
C1714       C  0.35420280  0.18448936  0.91643643     0.10500
S1715       S  0.25716319  0.24518921  0.91466283    -0.32850
S1716       S  0.38691792  0.15431672  0.91964422    -0.32860
H1717       H  0.39271087  0.15723881  0.95294334     0.28510
H1718       H  0.27290015  0.27387705  0.92527431     0.28500
H1719       H  0.29006907  0.21027851  0.86879029     0.19100
H1720       H  0.35529128  0.19497527  0.96794519     0.19100
C1721       C  0.65140901  0.83425970  0.84723270    -0.06730
C1722       C  0.64810005  0.80035153  0.84109460    -0.17860
C1723       C  0.61898028  0.78666998  0.83010324     0.10470
C1724       C  0.59133230  0.80685992  0.82426777    -0.06650
C1725       C  0.59197389  0.83946481  0.83509969    -0.17890
C1726       C  0.62103765  0.85262213  0.84890808     0.10500
S1727       S  0.61965912  0.74327372  0.82195912    -0.32850
S1728       S  0.61698684  0.89228564  0.86780687    -0.32860
H1729       H  0.64273264  0.88742807  0.89019722     0.28510
H1730       H  0.60929889  0.74765585  0.78987437     0.28500
H1731       H  0.66854314  0.78371677  0.84289231     0.19100
H1732       H  0.56970178  0.85444338  0.83340591     0.19100
C1733       C  0.71118200  0.82740451  0.82885702    -0.06730
C1734       C  0.71312119  0.83538157  0.79587011    -0.17860
C1735       C  0.73217909  0.81830397  0.77357033     0.10470
C1736       C  0.75461404  0.79350659  0.78405918    -0.06650
C1737       C  0.75090587  0.78312290  0.81632041    -0.17890
C1738       C  0.72909050  0.79802509  0.83799735     0.10500
S1739       S  0.72620112  0.82971882  0.73191573    -0.32850
S1740       S  0.72315101  0.77479595  0.87494527    -0.32860
H1741       H  0.72751984  0.74337370  0.86150645     0.28510
H1742       H  0.71861188  0.86308797  0.73700141     0.28500
H1743       H  0.69936843  0.85476401  0.78578453     0.19100
H1744       H  0.76280757  0.76092483  0.82452026     0.19100
C1745       C  0.68907968  0.88628342  0.84225504    -0.06730
C1746       C  0.70594008  0.90858211  0.86283239    -0.17860
C1747       C  0.72182045  0.93663457  0.85079295     0.10470
C1748       C  0.71842682  0.94483339  0.81797096    -0.06650
C1749       C  0.69374631  0.92868390  0.80041257    -0.17890
C1750       C  0.67769929  0.90086379  0.81241473     0.10500
S1751       S  0.74581069  0.96074464  0.87856090    -0.32850
S1752       S  0.64358590  0.88747537  0.78680887    -0.32860
H1753       H  0.64632653  0.85332449  0.78943574     0.28510
H1754       H  0.73674643  0.99109456  0.86465918     0.28500
H1755       H  0.70926679  0.90343620  0.88813947     0.19100
H1756       H  0.68745361  0.93711568  0.77634357     0.19100
C1757       C  0.69922528  0.84276695  0.88736618    -0.06730
C1758       C  0.67679837  0.83049978  0.91095093    -0.17860
C1759       C  0.68760462  0.81747839  0.94053158     0.10470
C1760       C  0.72155110  0.81748363  0.94812898    -0.06650
C1761       C  0.74331494  0.83390242  0.92745578    -0.17890
C1762       C  0.73333753  0.84603885  0.89737807     0.10500
S1763       S  0.65685304  0.80100734  0.96738297    -0.32850
S1764       S  0.76789877  0.86075727  0.87326689    -0.32860
H1765       H  0.75272104  0.86985333  0.84435715     0.28510
H1766       H  0.67358929  0.80982150  0.99584315     0.28500
H1767       H  0.65049087  0.82926615  0.90625944     0.19100
H1768       H  0.76946348  0.83484401  0.93356088     0.20620
C1769       C  0.38808559  0.85074493  0.19132804    -0.06730
C1770       C  0.40421878  0.82430791  0.17546554    -0.17860
C1771       C  0.43428066  0.81039757  0.18579929     0.10470
C1772       C  0.44865509  0.82049912  0.21510137    -0.06650
C1773       C  0.43487818  0.84805248  0.23018481    -0.17890
C1774       C  0.40566054  0.86363057  0.21896733     0.10500
S1775       S  0.45212978  0.77908976  0.16048254    -0.32850
S1776       S  0.39125237  0.89694993  0.24435321    -0.32860
H1777       H  0.42224495  0.90562664  0.25735116     0.28510
H1778       H  0.48460217  0.79123285  0.16339780     0.28500
H1779       H  0.39279416  0.81288614  0.15500085     0.19100
H1780       H  0.44604759  0.85641443  0.25241605     0.19100
C1781       C  0.33690846  0.85173794  0.14889678    -0.06730
C1782       C  0.30240361  0.84793646  0.14433703    -0.17860
C1783       C  0.28874667  0.83456703  0.11663922     0.10470
C1784       C  0.30935951  0.82613506  0.09073884    -0.06650
C1785       C  0.34290286  0.83553676  0.09215668    -0.17890
C1786       C  0.35627318  0.85025534  0.12018906     0.10500
S1787       S  0.24531305  0.82472883  0.11800741    -0.32850
S1788       S  0.39574558  0.87009761  0.11616958    -0.32860
H1789       H  0.38225329  0.90117606  0.12299361     0.28510
H1790       H  0.25072819  0.79164455  0.10977973     0.28500
H1791       H  0.28565203  0.85165657  0.16367753     0.19100
H1792       H  0.35846910  0.83215128  0.07118612     0.19100
C1793       C  0.33602781  0.82555985  0.20528253    -0.06730
C1794       C  0.33816630  0.82714693  0.23908706    -0.17860
C1795       C  0.32107122  0.80532822  0.25859171     0.10470
C1796       C  0.29551076  0.78567632  0.24477015    -0.06650
C1797       C  0.30193407  0.77753714  0.21216173    -0.17890
C1798       C  0.32337431  0.79571431  0.19296479     0.10500
S1799       S  0.34066724  0.79800724  0.29708290    -0.32850
S1800       S  0.33683419  0.77718977  0.15566691    -0.32860
H1801       H  0.33203768  0.74444987  0.16539028     0.28510
H1802       H  0.35320054  0.76732876  0.28721813     0.28500
H1803       H  0.35273615  0.84546982  0.25083471     0.19100
H1804       H  0.29130888  0.75640689  0.20090774     0.19100
C1805       C  0.33370154  0.88780051  0.19656011    -0.06730
C1806       C  0.35019510  0.91716901  0.18803349    -0.17860
C1807       C  0.34039778  0.94788859  0.20032122     0.10470
C1808       C  0.31068538  0.95028322  0.21790151    -0.06650
C1809       C  0.29196793  0.92244493  0.22300437    -0.17890
C1810       C  0.30220040  0.89155875  0.21287642     0.10500
S1811       S  0.36782870  0.98207339  0.19394794    -0.32850
S1812       S  0.27223826  0.85983942  0.22231399    -0.32860
H1813       H  0.24345475  0.87951036  0.21973392     0.28510
H1814       H  0.35484102  0.00310431  0.21749945     0.28500
H1815       H  0.37318453  0.91573077  0.17479569     0.19100
H1816       H  0.26943137  0.92470660  0.23691923     0.19100
C1817       C  0.38687251  0.83982674  0.85062145    -0.06730
C1818       C  0.39551411  0.80706808  0.85796480    -0.17860
C1819       C  0.42355730  0.79135354  0.84570894     0.10470
C1820       C  0.44560267  0.80897788  0.82609783    -0.06650
C1821       C  0.44107665  0.84311919  0.82376768    -0.17890
C1822       C  0.41341844  0.85909271  0.83765238     0.10500
S1823       S  0.42842065  0.74837556  0.85508211    -0.32850
S1824       S  0.41588281  0.90328183  0.84217210    -0.32860
H1825       H  0.44553962  0.90814424  0.82513617     0.28510
H1826       H  0.45952509  0.75283194  0.86987426     0.28500
H1827       H  0.38116020  0.79341270  0.87452596     0.19100
H1828       H  0.45976350  0.85741671  0.81156040     0.19100
C1829       C  0.32509878  0.82775522  0.83662895    -0.06730
C1830       C  0.29895262  0.84105878  0.81760870    -0.17860
C1831       C  0.27828514  0.82192975  0.79850538     0.10470
C1832       C  0.28551052  0.78794548  0.79460881    -0.06650
C1833       C  0.30879825  0.77439274  0.81649106    -0.17890
C1834       C  0.32342424  0.79309997  0.84073651     0.10500
S1835       S  0.23950780  0.84120653  0.78785683    -0.32850
S1836       S  0.32368661  0.77382196  0.88024545    -0.32860
H1837       H  0.31768035  0.74137044  0.87055081     0.28510
H1838       H  0.25244086  0.87270993  0.78217722     0.28500
H1839       H  0.29188820  0.86650525  0.82009818     0.19100
H1840       H  0.31128602  0.74817745  0.81807318     0.19100
C1841       C  0.33772623  0.84969593  0.89139767    -0.06730
C1842       C  0.30307993  0.85192193  0.89678736    -0.17860
C1843       C  0.28825509  0.83823426  0.92394569     0.10470
C1844       C  0.30831492  0.82433740  0.94842419    -0.06650
C1845       C  0.34290798  0.82767347  0.94609970    -0.17890
C1846       C  0.35772752  0.84147413  0.91864812     0.10500
S1847       S  0.24368107  0.83526651  0.92331126    -0.32850
S1848       S  0.40101623  0.85136001  0.92209472    -0.32860
H1849       H  0.39717156  0.88110729  0.90522852     0.28510
H1850       H  0.24373116  0.80130957  0.92976374     0.28500
H1851       H  0.28684775  0.86101380  0.87792848     0.19100
H1852       H  0.35854183  0.81968301  0.96597204     0.19100
C1853       C  0.34435020  0.88681154  0.84092447    -0.06730
C1854       C  0.33197131  0.91275748  0.86038153    -0.17860
C1855       C  0.31778633  0.94129871  0.84700802     0.10470
C1856       C  0.31693055  0.94537020  0.81333811    -0.06650
C1857       C  0.33374569  0.92257812  0.79416037    -0.17890
C1858       C  0.34734236  0.89362847  0.80689613     0.10500
S1859       S  0.30142022  0.97171572  0.87423113    -0.32850
S1860       S  0.36488907  0.86665073  0.77638367    -0.32860
H1861       H  0.36681655  0.83657797  0.79240139     0.28510
H1862       H  0.30933918  0.99887532  0.85476376     0.28500
H1863       H  0.33194809  0.91069756  0.88634100     0.19100
H1864       H  0.33446180  0.92633004  0.76828834     0.19100
C1865       C  0.84298352  0.38993547  0.85244611    -0.06730
C1866       C  0.80909404  0.39412086  0.84473236    -0.17860
C1867       C  0.79653762  0.42114557  0.82823016     0.10470
C1868       C  0.81779350  0.44638295  0.81849416    -0.06650
C1869       C  0.85085547  0.44529884  0.82897541    -0.17890
C1870       C  0.86324419  0.41844564  0.84721000     0.10500
S1871       S  0.75287422  0.42056312  0.81838440    -0.32850
S1872       S  0.90445490  0.42353939  0.86359635    -0.32860
H1873       H  0.90026749  0.40194682  0.88967084     0.28510
H1874       H  0.75857289  0.42604399  0.78545728     0.28500
H1875       H  0.79128671  0.37595306  0.84946793     0.19100
H1876       H  0.86682799  0.46591927  0.82385083     0.19100
C1877       C  0.83568418  0.32677880  0.84292474    -0.06730
C1878       C  0.85163634  0.30511073  0.82170921    -0.17860
C1879       C  0.83501053  0.28607666  0.79934916     0.10470
C1880       C  0.79908611  0.28433717  0.80008209    -0.06650
C1881       C  0.78506705  0.29728214  0.82844787    -0.17890
C1882       C  0.80226108  0.31742329  0.84994013     0.10500
S1883       S  0.86446584  0.26721348  0.77193234    -0.32850
S1884       S  0.77976054  0.32825100  0.88628390    -0.32860
H1885       H  0.75977587  0.30010572  0.88789109     0.28510
H1886       H  0.88574801  0.25448066  0.79599457     0.28500
H1887       H  0.87814298  0.30244952  0.82196672     0.19100
H1888       H  0.76055037  0.29169563  0.83521443     0.19100
C1889       C  0.95307330  0.32438876  0.82049445    -0.06730
C1890       C  0.93222394  0.34465561  0.80200970    -0.17860
C1891       C  0.90262865  0.35774949  0.81438831     0.10470
C1892       C  0.89377880  0.35194891  0.84764777    -0.06650
C1893       C  0.91909312  0.33802976  0.86721427    -0.17890
C1894       C  0.94699829  0.32233386  0.85404008     0.10500
S1895       S  0.87690082  0.37751284  0.78408310    -0.32850
S1896       S  0.97213178  0.29875832  0.88188841    -0.32860
H1897       H  0.00115875  0.29916442  0.86385260     0.28510
H1898       H  0.84644276  0.36635395  0.79484011     0.28500
H1899       H  0.93723125  0.34762969  0.77651850     0.19100
H1900       H  0.91631465  0.33668903  0.89303287     0.19100
C1901       C  0.85409455  0.34445027  0.89720860    -0.06730
C1902       C  0.86007051  0.31076615  0.90437142    -0.17860
C1903       C  0.84471086  0.29483240  0.92998511     0.10470
C1904       C  0.82476209  0.31302834  0.95140969    -0.06650
C1905       C  0.82461454  0.34745573  0.94872969    -0.17890
C1906       C  0.83933750  0.36347389  0.92229198     0.10500
S1907       S  0.84731283  0.25063065  0.93036015    -0.32850
S1908       S  0.83686990  0.40751366  0.92231885    -0.32860
H1909       H  0.86525044  0.41007283  0.94196236     0.28510
H1910       H  0.81265938  0.24655413  0.92999573     0.28500
H1911       H  0.87266570  0.29540928  0.88693764     0.19100
H1912       H  0.81126984  0.36192887  0.96638625     0.19100
loop_ 
_geom_bond_atom_site_label_1 
_geom_bond_atom_site_label_2 
_geom_bond_distance 
_geom_bond_site_symmetry_2 
_ccdc_geom_bond_type 
C1         C1865   1.583       .  S
C1         C1877   1.599       .  S
C1         C1892   1.589       .  S
C1         C1901   1.572       .  S
C2         C1817   1.586       .  S
C2         C1829   1.592       .  S
C2         C1841   1.569       .  S
C2         C1853   1.572       .  S
C3         C1769   1.586       .  S
C3         C1781   1.582       .  S
C3         C1793   1.552       .  S
C3         C1805   1.568       .  S
C4         C1721   1.570       .  S
C4         C1733   1.595       .  S
C4         C1745   1.598       .  S
C4         C1757   1.572       .  S
C5         C1673   1.570       .  S
C5         C1685   1.579       .  S
C5         C1700   1.572       .  S
C5         C1709   1.601       .  S
C6         C1625   1.603       .  S
C6         C1637   1.600       .  S
C6         C1652   1.545       .  S
C6         C1664   1.597       .  S
C7         C1577   1.582       .  S
C7         C1592   1.598       .  S
C7         C1601   1.578       .  S
C7         C1613   1.597       .  S
C8         C1529   1.594       .  S
C8         C1541   1.586       .  S
C8         C1556   1.573       .  S
C8         C1568   1.601       .  S
C9         C1481   1.569       .  S
C9         C1493   1.593       .  S
C9         C1508   1.603       .  S
C9         C1517   1.595       .  S
C10        C1433   1.571       .  S
C10        C1448   1.593       .  S
C10        C1457   1.568       .  S
C10        C1469   1.586       .  S
C11        C1388   1.583       .  S
C11        C1400   1.600       .  S
C11        C1409   1.586       .  S
C11        C1421   1.563       .  S
C12        C1337   1.604       .  S
C12        C1349   1.629       .  S
C12        C1361   1.572       .  S
C12        C1376   1.584       .  S
C13        C1292   1.577       .  S
C13        C1301   1.567       .  S
C13        C1313   1.596       .  S
C13        C1328   1.601       .  S
C14        C1241   1.610       .  S
C14        C1253   1.580       .  S
C14        C1265   1.585       .  S
C14        C1280   1.601       .  S
C15        C1193   1.600       .  S
C15        C1208   1.580       .  S
C15        C1217   1.564       .  S
C15        C1229   1.580       .  S
C16        C1145   1.575       .  S
C16        C1160   1.592       .  S
C16        C1169   1.582       .  S
C16        C1181   1.592       .  S
O17          V25   1.910       .  S
O17          C27   1.268       .  A
O18          V25   1.913       .  S
O18          C28   1.267       .  A
O19          V25   1.921       .  S
O19          C29   1.269       .  A
O20          V25   1.914       .  S
O20          C30   1.267       .  A
O21          V26   1.901       .  S
O21          C30   1.265       .  A
O22          V26   1.907       .  S
O22          C29   1.268       .  A
O23          V26   1.904       .  S
O23          C28   1.266       .  A
O24          V26   1.901       .  S
O24          C27   1.264       .  A
V25          V26   2.082       .  T
C27        C1772   1.500       .  S
C28        C1124   1.492       .  S
C29        C1244   1.506       .  S
C30        C1133   1.491       .  S
O31          V39   1.909       .  S
O31          C41   1.266       .  A
O32          V39   1.904       .  S
O32          C42   1.267       .  A
O33          V39   1.901       .  S
O33          C43   1.264       .  A
O34          V39   1.901       .  S
O34          C44   1.266       .  A
O35          V40   1.913       .  S
O35          C44   1.267       .  A
O36          V40   1.902       .  S
O36          C43   1.265       .  A
O37          V40   1.879       .  S
O37          C42   1.258       .  A
O38          V40   1.884       .  S
O38          C41   1.261       .  A
V39          V40   2.084       .  T
C41        C1724   1.471       .  S
C42        C1100   1.478       .  S
C43        C1820   1.490       .  S
C44        C1112   1.496       .  S
O45          V53   1.913       .  S
O45          C55   1.268       .  A
O46          V53   1.919       .  S
O46          C56   1.269       .  A
O47          V53   1.901       .  S
O47          C57   1.262       .  A
O48          V53   1.903       .  S
O48          C58   1.264       .  A
O49          V54   1.917       .  S
O49          C58   1.269       .  A
O50          V54   1.904       .  S
O50          C57   1.267       .  A
O51          V54   1.897       .  S
O51          C56   1.265       .  A
O52          V54   1.901       .  S
O52          C55   1.262       .  A
V53          V54   2.084       .  T
C55        C1061   1.477       .  S
C56        C1073   1.500       .  S
C57        C1196   1.475       .  S
C58        C1085   1.500       .  S
C59        C1013   1.560       .  S
C59        C1028   1.585       .  S
C59        C1037   1.590       .  S
C59        C1049   1.581       .  S
C60         C977   1.591       .  S
C60         C989   1.575       .  S
C60        C1001   1.604       .  S
C60        C1088   1.608       .  S
O61          V69   1.923       .  S
O61          C71   1.270       .  A
O62          V69   1.918       .  S
O62          C72   1.271       .  A
O63          V69   1.908       .  S
O63          C73   1.267       .  A
O64          V69   1.910       .  S
O64          C74   1.264       .  A
O65          V70   1.903       .  S
O65          C74   1.269       .  A
O66          V70   1.915       .  S
O66          C73   1.268       .  A
O67          V70   1.896       .  S
O67          C72   1.261       .  A
O68          V70   1.896       .  S
O68          C71   1.263       .  A
V69          V70   2.082       .  T
C71         C992   1.491       .  S
C72        C1385   1.498       .  S
C73         C968   1.503       .  S
C74        C1532   1.495       .  S
C75         C941   1.581       .  S
C75         C953   1.596       .  S
C75         C965   1.612       .  S
C75        C1121   1.575       .  S
C76         C932   1.568       .  S
C76         C956   1.550       .  S
C76        C1268   1.579       .  S
C76        C1412   1.556       .  S
O77          V85   1.919       .  S
O77          C87   1.270       .  A
O78          V85   1.914       .  S
O78          C88   1.268       .  A
O79          V85   1.890       .  S
O79          C89   1.261       .  A
O80          V85   1.885       .  S
O80          C90   1.260       .  A
O81          V86   1.928       .  S
O81          C90   1.270       .  A
O82          V86   1.924       .  S
O82          C89   1.271       .  A
O83          V86   1.904       .  S
O83          C88   1.265       .  A
O84          V86   1.908       .  S
O84          C87   1.266       .  A
V85          V86   2.084       .  T
C87         C908   1.504       .  S
C88         C920   1.494       .  S
C89        C1484   1.488       .  S
C90         C944   1.485       .  S
C91         C881   1.593       .  S
C91         C893   1.583       .  S
C91         C917   1.582       .  S
C91        C1109   1.577       .  S
C92         C896   1.575       .  S
C92        C1496   1.553       .  S
C92        C1640   1.572       .  S
C92        C1736   1.571       .  S
O93         V101   1.923       .  S
O93         C103   1.272       .  A
O94         V101   1.917       .  S
O94         C104   1.270       .  A
O95         V101   1.879       .  S
O95         C105   1.258       .  A
O96         V101   1.883       .  S
O96         C106   1.258       .  A
O97         V102   1.924       .  S
O97         C106   1.270       .  A
O98         V102   1.926       .  S
O98         C105   1.271       .  A
O99         V102   1.893       .  S
O99         C104   1.261       .  A
O100        V102   1.898       .  S
O100        C103   1.262       .  A
V101        V102   2.084       .  T
C103       C1628   1.497       .  S
C104        C869   1.492       .  S
C105       C1868   1.479       .  S
C106        C884   1.474       .  S
C107        C845   1.560       .  S
C107        C857   1.622       .  S
C107        C872   1.608       .  S
C107       C1076   1.616       .  S
C108        C860   1.571       .  S
C108       C1220   1.545       .  S
C108       C1316   1.588       .  S
C108       C1880   1.587       .  S
O109        V117   1.915       .  S
O109        C119   1.268       .  A
O110        V117   1.903       .  S
O110        C120   1.268       .  A
O111        V117   1.873       .  S
O111        C121   1.255       .  A
O112        V117   1.868       .  S
O112        C122   1.257       .  A
O113        V118   1.925       .  S
O113        C122   1.270       .  A
O114        V118   1.926       .  S
O114        C121   1.273       .  A
O115        V118   1.898       .  S
O115        C120   1.261       .  A
O116        V118   1.896       .  S
O116        C119   1.262       .  A
V117        V118   2.084       .  T
C119        C848   1.479       .  S
C120       C1676   1.487       .  S
C121        C833   1.487       .  S
C122       C1289   1.476       .  S
C123        C788   1.574       .  S
C123        C797   1.585       .  S
C123        C809   1.596       .  S
C123        C821   1.590       .  S
C124        C749   1.603       .  S
C124        C761   1.568       .  S
C124        C776   1.609       .  S
C124        C836   1.581       .  S
O125        V133   1.921       .  S
O125        C135   1.268       .  A
O126        V133   1.922       .  S
O126        C136   1.268       .  A
O127        V133   1.901       .  S
O127        C137   1.264       .  A
O128        V133   1.895       .  S
O128        C138   1.265       .  A
O129        V134   1.907       .  S
O129        C138   1.265       .  A
O130        V134   1.909       .  S
O130        C137   1.267       .  A
O131        V134   1.890       .  S
O131        C136   1.262       .  A
O132        V134   1.886       .  S
O132        C135   1.262       .  A
V133        V134   2.084       .  T
C135        C740   1.488       .  S
C136       C1580   1.482       .  S
C137        C764   1.488       .  S
C138       C1340   1.493       .  S
C139        C716   1.563       .  S
C139        C725   1.566       .  S
C139        C737   1.592       .  S
C139       C1097   1.583       .  S
C140        C728   1.589       .  S
C140       C1172   1.599       .  S
C140       C1364   1.549       .  S
C140       C1832   1.567       .  S
O141        V149   1.912       .  S
O141        C151   1.266       .  A
O142        V149   1.919       .  S
O142        C152   1.269       .  A
O143        V149   1.902       .  S
O143        C153   1.266       .  A
O144        V149   1.911       .  S
O144        C154   1.265       .  A
O145        V150   1.902       .  S
O145        C154   1.267       .  A
O146        V150   1.906       .  S
O146        C153   1.266       .  A
O147        V150   1.895       .  S
O147        C152   1.263       .  A
O148        V150   1.882       .  S
O148        C151   1.261       .  A
V149        V150   2.086       .  T
C151       C1436   1.466       .  S
C152        C713   1.480       .  S
C153        C701   1.488       .  S
C154       C1148   1.484       .  S
C155        C653   1.583       .  S
C155        C665   1.579       .  S
C155        C677   1.587       .  S
C155        C692   1.571       .  S
C156        C629   1.591       .  S
C156        C641   1.596       .  S
C156        C704   1.563       .  S
C156       C1136   1.599       .  S
C157        C581   1.579       .  S
C157        C593   1.578       .  S
C157        C605   1.591       .  S
C157        C617   1.584       .  S
O158        V166   1.892       .  S
O158        C168   1.261       .  A
O159        V166   1.884       .  S
O159        C169   1.260       .  A
O160        V166   1.924       .  S
O160        C170   1.270       .  A
O161        V166   1.919       .  S
O161        C171   1.269       .  A
O162        V167   1.883       .  S
O162        C171   1.259       .  A
O163        V167   1.878       .  S
O163        C170   1.259       .  A
O164        V167   1.922       .  S
O164        C169   1.270       .  A
O165        V167   1.928       .  S
O165        C168   1.272       .  A
V166        V167   2.083       .  T
C168        C632   1.495       .  S
C169        C569   1.485       .  S
C170        C608   1.489       .  S
C171        C656   1.471       .  S
C172        C644   1.562       .  S
C172        C689   1.548       .  S
C172       C1460   1.612       .  S
C172       C1796   1.589       .  S
O173        V181   1.906   1_655  S
O173        C183   1.265       .  A
O174        V181   1.900       .  S
O174        C184   1.266       .  A
O175        V181   1.891       .  S
O175        C185   1.262       .  A
O176        V181   1.892   1_655  S
O176        C186   1.264       .  A
O177        V182   1.919   1_655  S
O177        C186   1.268       .  A
O178        V182   1.918       .  S
O178        C185   1.269       .  A
O179        V182   1.918       .  S
O179        C184   1.268       .  A
O180        V182   1.920   1_655  S
O180        C183   1.270       .  A
V181        V182   2.081       .  T
C183        C557   1.501       .  S
C184        C680   1.505       .  S
C185       C1445   1.497       .  S
C186       C1424   1.490       .  S
O187        V195   1.910       .  S
O187        C197   1.264       .  A
O188        V195   1.897   1_556  S
O188        C198   1.266       .  A
O189        V195   1.901   1_556  S
O189        C199   1.264       .  A
O190        V195   1.900       .  S
O190        C200   1.265       .  A
O191        V196   1.906       .  S
O191        C200   1.265       .  A
O192        V196   1.903   1_556  S
O192        C199   1.266       .  A
O193        V196   1.903   1_556  S
O193        C198   1.263       .  A
O194        V196   1.902       .  S
O194        C197   1.266       .  A
V195        V196   2.086       .  T
C197       C1784   1.485       .  S
C198       C1373   1.475       .  S
C199       C1844   1.484       .  S
C200        C668   1.486       .  S
C201        C773   1.559       .  S
C201        C824   1.565       .  S
C201       C1604   1.558       .  S
C201       C1697   1.564       .  S
O202        V210   1.887   1_565  S
O202        C212   1.261       .  A
O203        V210   1.892       .  S
O203        C213   1.262       .  A
O204        V210   1.918       .  S
O204        C214   1.271       .  A
O205        V210   1.920   1_565  S
O205        C215   1.269       .  A
O206        V211   1.883   1_565  S
O206        C215   1.262       .  A
O207        V211   1.886       .  S
O207        C214   1.259       .  A
O208        V211   1.923       .  S
O208        C213   1.269       .  A
O209        V211   1.918   1_565  S
O209        C212   1.270       .  A
V210        V211   2.085       .  T
C212       C1856   1.483       .  S
C213        C812   1.484       .  S
C214       C1688   1.487       .  S
C215       C1184   1.491       .  S
O216        V224   1.904   1_655  S
O216        C226   1.265       .  A
O217        V224   1.903       .  S
O217        C227   1.266       .  A
O218        V224   1.920       .  S
O218        C228   1.266       .  A
O219        V224   1.903   1_655  S
O219        C229   1.270       .  A
O220        V225   1.910   1_655  S
O220        C229   1.264       .  A
O221        V225   1.901       .  S
O221        C228   1.268       .  A
O222        V225   1.911       .  S
O222        C227   1.267       .  A
O223        V225   1.911   1_655  S
O223        C226   1.269       .  A
V224        V225   2.081       .  T
C226       C1889   1.495       .  S
C227        C800   1.491       .  S
C228       C1589   1.493       .  S
C229       C1232   1.500       .  S
O230        V238   1.900       .  S
O230        C240   1.265       .  A
O231        V238   1.897       .  S
O231        C241   1.266       .  A
O232        V238   1.894       .  S
O232        C242   1.264       .  A
O233        V238   1.895       .  S
O233        C243   1.263       .  A
O234        V239   1.915       .  S
O234        C243   1.269       .  A
O235        V239   1.923       .  S
O235        C242   1.269       .  A
O236        V239   1.912       .  S
O236        C241   1.266       .  A
O237        V239   1.913       .  S
O237        C240   1.267       .  A
V238        V239   2.084       .  T
C240        C596   1.489       .  S
C241        C785   1.492       .  S
C242        C752   1.492       .  S
C243        C545   1.492       .  S
C244        C536   1.541       .  S
C244       C1004   1.586       .  S
C244       C1052   1.561       .  S
C244       C1553   1.562       .  S
O245        V253   1.879   1_565  S
O245        C255   1.260       .  A
O246        V253   1.888       .  S
O246        C256   1.258       .  A
O247        V253   1.918       .  S
O247        C257   1.272       .  A
O248        V253   1.919   1_565  S
O248        C258   1.271       .  A
O249        V254   1.901   1_565  S
O249        C258   1.262       .  A
O250        V254   1.908       .  S
O250        C257   1.264       .  A
O251        V254   1.936       .  S
O251        C256   1.275       .  A
O252        V254   1.929   1_565  S
O252        C255   1.272       .  A
V253        V254   2.081       .  T
C255        C512   1.491       .  S
C256       C1025   1.503       .  S
C257        C524   1.503       .  S
C258       C1277   1.498       .  S
O259        V267   1.927       .  S
O259        C269   1.272       .  A
O260        V267   1.922   1_556  S
O260        C270   1.270       .  A
O261        V267   1.896   1_556  S
O261        C271   1.263       .  A
O262        V267   1.920       .  S
O262        C272   1.267       .  A
O263        V268   1.929       .  S
O263        C272   1.273       .  A
O264        V268   1.909   1_556  S
O264        C271   1.267       .  A
O265        V268   1.892   1_556  S
O265        C270   1.261       .  A
O266        V268   1.897       .  S
O266        C269   1.262       .  A
V267        V268   2.082       .  T
C269       C1544   1.487       .  S
C270       C1325   1.500       .  S
C271       C1904   1.486       .  S
C272       C1040   1.507       .  S
O273        V281   1.908       .  S
O273        C283   1.267       .  A
O274        V281   1.903       .  S
O274        C284   1.264       .  A
O275        V281   1.926       .  S
O275        C285   1.271       .  A
O276        V281   1.923       .  S
O276        C286   1.269       .  A
O277        V282   1.876       .  S
O277        C286   1.260       .  A
O278        V282   1.886       .  S
O278        C285   1.260       .  A
O279        V282   1.904       .  S
O279        C284   1.267       .  A
O280        V282   1.909       .  S
O280        C283   1.266       .  A
V281        V282   2.082       .  T
C283        C980   1.499       .  S
C284        C500   1.493       .  S
C285        C584   1.494       .  S
C286       C1016   1.483       .  S
C287        C461   1.567       .  S
C287        C476   1.606       .  S
C287        C488   1.596       .  S
C287        C572   1.580       .  S
C288        C428   1.618       .  S
C288        C437   1.581       .  S
C288        C449   1.600       .  S
C288        C497   1.576       .  S
C289        C389   1.571       .  S
C289        C401   1.583       .  S
C289        C416   1.591       .  S
C289        C548   1.592       .  S
C290        C413   1.563       .  S
C290        C452   1.561       .  S
C290        C485   1.573       .  S
C290        C620   1.568       .  S
O291        V299   1.899   1_655  S
O291        C301   1.265       .  A
O292        V299   1.908       .  S
O292        C302   1.266       .  A
O293        V299   1.914   1_655  S
O293        C303   1.267       .  A
O294        V299   1.910       .  S
O294        C304   1.266       .  A
O295        V300   1.900       .  S
O295        C304   1.264       .  A
O296        V300   1.905   1_655  S
O296        C303   1.267       .  A
O297        V300   1.913       .  S
O297        C302   1.268       .  A
O298        V300   1.910   1_655  S
O298        C301   1.266       .  A
V299        V300   2.085       .  T
C301        C377   1.488       .  S
C302        C464   1.494       .  S
C303       C1565   1.501       .  S
C304        C404   1.476       .  S
O305        V313   1.901   1_565  S
O305        C315   1.266       .  A
O306        V313   1.894       .  S
O306        C316   1.265       .  A
O307        V313   1.898       .  S
O307        C317   1.264       .  A
O308        V313   1.896   1_565  S
O308        C318   1.261       .  A
O309        V314   1.898   1_565  S
O309        C318   1.265       .  A
O310        V314   1.904       .  S
O310        C317   1.266       .  A
O311        V314   1.905       .  S
O311        C316   1.263       .  A
O312        V314   1.902   1_565  S
O312        C315   1.264       .  A
V313        V314   2.087       .  T
C315       C1472   1.487       .  S
C316        C440   1.472       .  S
C317        C392   1.484       .  S
C318       C1808   1.464       .  S
O319        V327   1.904       .  S
O319        C329   1.266       .  A
O320        V327   1.912   1_556  S
O320        C330   1.265       .  A
O321        V327   1.914   1_556  S
O321        C331   1.269       .  A
O322        V327   1.911       .  S
O322        C332   1.267       .  A
O323        V328   1.904       .  S
O323        C332   1.266       .  A
O324        V328   1.903   1_556  S
O324        C331   1.265       .  A
O325        V328   1.907   1_556  S
O325        C330   1.266       .  A
O326        V328   1.910       .  S
O326        C329   1.266       .  A
V327        V328   2.083       .  T
C329        C473   1.495       .  S
C330       C1712   1.483       .  S
C331       C1616   1.505       .  S
C332        C425   1.494       .  S
O333        V341   1.916   1_655  S
O333        C343   1.267       .  A
O334        V341   1.914       .  S
O334        C344   1.266       .  A
O335        V341   1.911       .  S
O335        C345   1.265       .  A
O336        V341   1.904   1_655  S
O336        C346   1.268       .  A
O337        V342   1.898   1_655  S
O337        C346   1.262       .  A
O338        V342   1.894       .  S
O338        C345   1.266       .  A
O339        V342   1.888       .  S
O339        C344   1.263       .  A
O340        V342   1.887   1_655  S
O340        C343   1.263       .  A
V341        V342   2.083       .  T
C343       C1505   1.490       .  S
C344       C1352   1.485       .  S
C345       C1157   1.494       .  S
C346       C1661   1.487       .  S
O347        V355   1.886   1_565  S
O347        C357   1.260       .  A
O348        V355   1.890       .  S
O348        C358   1.260       .  A
O349        V355   1.923   1_565  S
O349        C359   1.271       .  A
O350        V355   1.919       .  S
O350        C360   1.269       .  A
O351        V356   1.878       .  S
O351        C360   1.258       .  A
O352        V356   1.885   1_565  S
O352        C359   1.261       .  A
O353        V356   1.923       .  S
O353        C358   1.271       .  A
O354        V356   1.920   1_565  S
O354        C357   1.270       .  A
V355        V356   2.083       .  T
C357       C1520   1.492       .  S
C358       C1304   1.488       .  S
C359       C1748   1.493       .  S
C360       C1205   1.478       .  S
O361        V369   1.924   1_556  S
O361        C371   1.272       .  A
O362        V369   1.928       .  S
O362        C372   1.273       .  A
O363        V369   1.892       .  S
O363        C373   1.258       .  A
O364        V369   1.883   1_556  S
O364        C374   1.258       .  A
O365        V370   1.913   1_556  S
O365        C374   1.269       .  A
O366        V370   1.922       .  S
O366        C373   1.271       .  A
O367        V370   1.876       .  S
O367        C372   1.255       .  A
O368        V370   1.876   1_556  S
O368        C371   1.258       .  A
V369        V370   2.083       .  T
C371       C1760   1.484       .  S
C372       C1397   1.476       .  S
C373       C1256   1.478       .  S
C374       C1649   1.472       .  S
C375        C380   1.584       .  S
C375        C521   1.590       .  S
C375        C533   1.559       .  S
C375       C1064   1.598       .  S
C376        C509   1.566       .  S
C376        C560   1.593       .  S
C376        C905   1.602       .  S
C376        C929   1.594       .  S
C377        C378   1.394       .  A
C377        C382   1.411       .  A
C378        C379   1.402       .  A
C378        H387   1.083       .  S
C379        C380   1.441       .  A
C379        S383   1.803       .  S
C380        C381   1.416       .  A
C381        C382   1.407       .  A
C381        H388   1.081       .  S
C382        S384   1.802       .  S
S383        H386   1.407       .  S
S384        H385   1.408   1_655  S
C389        C390   1.419       .  A
C389        C394   1.439       .  A
C390        C391   1.406       .  A
C390        H399   1.078       .  S
C391        C392   1.409       .  A
C391        S395   1.808       .  S
C392        C393   1.399       .  A
C393        C394   1.402       .  A
C393        H400   1.083       .  S
C394        S396   1.816       .  S
S395        H398   1.406       .  S
S396        H397   1.407       .  S
C401        C402   1.419       .  A
C401        C406   1.435       .  A
C402        C403   1.385       .  A
C402        H411   1.065       .  S
C403        C404   1.397       .  A
C403        S407   1.800       .  S
C404        C405   1.404       .  A
C405        C406   1.415       .  A
C405        H412   1.084       .  S
C406        S408   1.806       .  S
S407        H410   1.401       .  S
S408        H409   1.401       .  S
C413        C414   1.409       .  A
C413        C418   1.427       .  A
C414        C415   1.390       .  A
C414        H423   1.070       .  S
C415        C416   1.442       .  A
C415        S419   1.817       .  S
C416        C417   1.413       .  A
C417        C418   1.389       .  A
C417        H424   1.059       .  S
C418        S420   1.821       .  S
S419        H422   1.408       .  S
S420        H421   1.395       .  S
C425        C426   1.398       .  A
C425        C430   1.407       .  A
C426        C427   1.408       .  A
C426        H435   1.083       .  S
C427        C428   1.450       .  A
C427        S431   1.823       .  S
C428        C429   1.424       .  A
C429        C430   1.405       .  A
C429        H436   1.077       .  S
C430        S432   1.803       .  S
S431        H434   1.407       .  S
S432        H433   1.408       .  S
C437        C438   1.424       .  A
C437        C442   1.437       .  A
C438        C439   1.410       .  A
C438        H447   1.082       .  S
C439        C440   1.411       .  A
C439        S443   1.805       .  S
C440        C441   1.385       .  A
C441        C442   1.389       .  A
C441        H448   1.086       .  S
C442        S444   1.784       .  S
S443        H446   1.401       .  S
S444        H445   1.406       .  S
C449        C450   1.412       .  A
C449        C454   1.451       .  A
C450        C451   1.390       .  A
C450        H459   1.042       .  S
C451        C452   1.418       .  A
C451        S455   1.817       .  S
C452        C453   1.403       .  A
C453        C454   1.391       .  A
C453        H460   1.074       .  S
C454        S456   1.814       .  S
S455        H458   1.407       .  S
S456        H457   1.408       .  S
C461        C462   1.420       .  A
C461        C466   1.445       .  A
C462        C463   1.407       .  A
C462        H471   1.080       .  S
C463        C464   1.411       .  A
C463        S467   1.802       .  S
C464        C465   1.398       .  A
C465        C466   1.404       .  A
C465        H472   1.083       .  S
C466        S468   1.818       .  S
S467        H470   1.407       .  S
S468        H469   1.393       .  S
C473        C474   1.403       .  A
C473        C478   1.409       .  A
C474        C475   1.411       .  A
C474        H483   1.084       .  S
C475        C476   1.440       .  A
C475        S479   1.808       .  S
C476        C477   1.418       .  A
C477        C478   1.398       .  A
C477        H484   1.071       .  S
C478        S480   1.803       .  S
S479        H482   1.399       .  S
S480        H481   1.408       .  S
C485        C486   1.413       .  A
C485        C490   1.426       .  A
C486        C487   1.394       .  A
C486        H495   1.073       .  S
C487        C488   1.441       .  A
C487        S491   1.817       .  S
C488        C489   1.408       .  A
C489        C490   1.392       .  A
C489        H496   1.063       .  S
C490        S492   1.818       .  S
S491        H494   1.408       .  S
S492        H493   1.405       .  S
C497        C498   1.425       .  A
C497        C502   1.431       .  A
C498        C499   1.401       .  A
C498        H507   1.084       .  S
C499        C500   1.414       .  A
C499        S503   1.800       .  S
C500        C501   1.404       .  A
C501        C502   1.404       .  A
C501        H508   1.084       .  S
C502        S504   1.797       .  S
S503        H506   1.408       .  S
S504        H505   1.407       .  S
C509        C510   1.420       .  A
C509        C514   1.434       .  A
C510        C511   1.409       .  A
C510        H519   1.081       .  S
C511        C512   1.410       .  A
C511        S515   1.799       .  S
C512        C513   1.400       .  A
C513        C514   1.397       .  A
C513        H520   1.083       .  S
C514        S516   1.812       .  S
S515        H518   1.406   1_565  S
S516        H517   1.407       .  S
C521        C522   1.416       .  A
C521        C526   1.448       .  A
C522        C523   1.414       .  A
C522        H531   1.079       .  S
C523        C524   1.417       .  A
C523        S527   1.797       .  S
C524        C525   1.393       .  A
C525        C526   1.404       .  A
C525        H532   1.083       .  S
C526        S528   1.813       .  S
S527        H530   1.408       .  S
S528        H529   1.407       .  S
C533        C534   1.408       .  A
C533        C538   1.431       .  A
C534        C535   1.386       .  A
C534        H543   1.075       .  S
C535        C536   1.432       .  A
C535        S539   1.813       .  S
C536        C537   1.401       .  A
C537        C538   1.379       .  A
C537        H544   1.069       .  S
C538        S540   1.816       .  S
S539        H542   1.395       .  S
S540        H541   1.407       .  S
C545        C546   1.402       .  A
C545        C550   1.408       .  A
C546        C547   1.407       .  A
C546        H555   1.083       .  S
C547        C548   1.437       .  A
C547        S551   1.815       .  S
C548        C549   1.420       .  A
C549        C550   1.402       .  A
C549        H556   1.079       .  S
C550        S552   1.802       .  S
S551        H554   1.407       .  S
S552        H553   1.407       .  S
C557        C558   1.407       .  A
C557        C562   1.417       .  A
C558        C559   1.410       .  A
C558        H567   1.084       .  S
C559        C560   1.427       .  A
C559        S563   1.802       .  S
C560        C561   1.424       .  A
C561        C562   1.406       .  A
C561        H568   1.083       .  S
C562        S564   1.802       .  S
S563        H566   1.407       .  S
S564        H565   1.407       .  S
C569        C570   1.405       .  A
C569        C574   1.411       .  A
C570        C571   1.411       .  A
C570        H579   1.084       .  S
C571        C572   1.428       .  A
C571        S575   1.800       .  S
C572        C573   1.413       .  A
C573        C574   1.391       .  A
C573        H580   1.072       .  S
C574        S576   1.806       .  S
S575        H578   1.401       .  S
S576        H577   1.408       .  S
C581        C582   1.414       .  A
C581        C586   1.433       .  A
C582        C583   1.392       .  A
C582        H591   1.075       .  S
C583        C584   1.412       .  A
C583        S587   1.802       .  S
C584        C585   1.406       .  A
C585        C586   1.414       .  A
C585        H592   1.084       .  S
C586        S588   1.808       .  S
S587        H590   1.408       .  S
S588        H589   1.397       .  S
C593        C594   1.422       .  A
C593        C598   1.432       .  A
C594        C595   1.395       .  A
C594        H603   1.084       .  S
C595        C596   1.409       .  A
C595        S599   1.803       .  S
C596        C597   1.404       .  A
C597        C598   1.411       .  A
C597        H604   1.084       .  S
C598        S600   1.802       .  S
S599        H602   1.408       .  S
S600        H601   1.397       .  S
C605        C606   1.407       .  A
C605        C610   1.436       .  A
C606        C607   1.389       .  A
C606        H615   1.068       .  S
C607        C608   1.412       .  A
C607        S611   1.806       .  S
C608        C609   1.404       .  A
C609        C610   1.413       .  A
C609        H616   1.084       .  S
C610        S612   1.806       .  S
S611        H614   1.409       .  S
S612        H613   1.401       .  S
C617        C618   1.418       .  A
C617        C622   1.407       .  A
C618        C619   1.393       .  A
C618        H627   1.080       .  S
C619        C620   1.442       .  A
C619        S623   1.810       .  S
C620        C621   1.411       .  A
C621        C622   1.389       .  A
C621        H628   1.068       .  S
C622        S624   1.806       .  S
S623        H626   1.397       .  S
S624        H625   1.405       .  S
C629        C630   1.417       .  A
C629        C634   1.432       .  A
C630        C631   1.395       .  A
C630        H639   1.071       .  S
C631        C632   1.410       .  A
C631        S635   1.802       .  S
C632        C633   1.403       .  A
C633        C634   1.414       .  A
C633        H640   1.084       .  S
C634        S636   1.797       .  S
S635        H638   1.407       .  S
S636        H637   1.407       .  S
C641        C642   1.403       .  A
C641        C646   1.442       .  A
C642        C643   1.387       .  A
C642        H651   1.074       .  S
C643        C644   1.422       .  A
C643        S647   1.785       .  S
C644        C645   1.403       .  A
C645        C646   1.400       .  A
C645        H652   1.065       .  S
C646        S648   1.806       .  S
S647        H650   1.391       .  S
S648        H649   1.393       .  S
C653        C654   1.418       .  A
C653        C658   1.428       .  A
C654        C655   1.382       .  A
C654        H663   1.070       .  S
C655        C656   1.394       .  A
C655        S659   1.802       .  S
C656        C657   1.405       .  A
C657        C658   1.418       .  A
C657        H664   1.083       .  S
C658        S660   1.790       .  S
S659        H662   1.407       .  S
S660        H661   1.406       .  S
C665        C666   1.422       .  A
C665        C670   1.431       .  A
C666        C667   1.389       .  A
C666        H675   1.070       .  S
C667        C668   1.402       .  A
C667        S671   1.802       .  S
C668        C669   1.409       .  A
C669        C670   1.419       .  A
C669        H676   1.082       .  S
C670        S672   1.808       .  S
S671        H674   1.407       .  S
S672        H673   1.406       .  S
C677        C678   1.421       .  A
C677        C682   1.446       .  A
C678        C679   1.404       .  A
C678        H687   1.071       .  S
C679        C680   1.409       .  A
C679        S683   1.800       .  S
C680        C681   1.401       .  A
C681        C682   1.408       .  A
C681        H688   1.082       .  S
C682        S684   1.810       .  S
S683        H686   1.408       .  S
S684        H685   1.408       .  S
C689        C690   1.409       .  A
C689        C694   1.427       .  A
C690        C691   1.391       .  A
C690        H699   1.082       .  S
C691        C692   1.427       .  A
C691        S695   1.805       .  S
C692        C693   1.410       .  A
C693        C694   1.392       .  A
C693        H700   1.073       .  S
C694        S696   1.810       .  S
S695        H698   1.408       .  S
S696        H697   1.407       .  S
C701        C702   1.397       .  A
C701        C706   1.412       .  A
C702        C703   1.401       .  A
C702        H711   1.084       .  S
C703        C704   1.447       .  A
C703        S707   1.817       .  S
C704        C705   1.418       .  A
C705        C706   1.405       .  A
C705        H712   1.080       .  S
C706        S708   1.803       .  S
S707        H710   1.390       .  S
S708        H709   1.406       .  S
C713        C714   1.377       .  A
C713        C718   1.408       .  A
C714        C715   1.379       .  A
C714        H723   1.068       .  S
C715        C716   1.446       .  A
C715        S719   1.817       .  S
C716        C717   1.421       .  A
C717        C718   1.416       .  A
C717        H724   1.082       .  S
C718        S720   1.802       .  S
S719        H722   1.393       .  S
S720        H721   1.404       .  S
C725        C726   1.412       .  A
C725        C730   1.428       .  A
C726        C727   1.397       .  A
C726        H735   1.077       .  S
C727        C728   1.429       .  A
C727        S731   1.803       .  S
C728        C729   1.404       .  A
C729        C730   1.396       .  A
C729        H736   1.076       .  S
C730        S732   1.802       .  S
S731        H734   1.408       .  S
S732        H733   1.407       .  S
C737        C738   1.413       .  A
C737        C742   1.429       .  A
C738        C739   1.389       .  A
C738        H747   1.067       .  S
C739        C740   1.410       .  A
C739        S743   1.805       .  S
C740        C741   1.408       .  A
C741        C742   1.415       .  A
C741        H748   1.083       .  S
C742        S744   1.804       .  S
S743        H746   1.408       .  S
S744        H745   1.405       .  S
C749        C750   1.407       .  A
C749        C754   1.446       .  A
C750        C751   1.391       .  A
C750        H759   1.051       .  S
C751        C752   1.405       .  A
C751        S755   1.805       .  S
C752        C753   1.403       .  A
C753        C754   1.418       .  A
C753        H760   1.084       .  S
C754        S756   1.811       .  S
S755        H758   1.407       .  S
S756        H757   1.395       .  S
C761        C762   1.422       .  A
C761        C766   1.432       .  A
C762        C763   1.395       .  A
C762        H771   1.084       .  S
C763        C764   1.410       .  A
C763        S767   1.804       .  S
C764        C765   1.405       .  A
C765        C766   1.410       .  A
C765        H772   1.084       .  S
C766        S768   1.801       .  S
S767        H770   1.406       .  S
S768        H769   1.395       .  S
C773        C774   1.403       .  A
C773        C778   1.420       .  A
C774        C775   1.394       .  A
C774        H783   1.071       .  S
C775        C776   1.437       .  A
C775        S779   1.806       .  S
C776        C777   1.422       .  A
C777        C778   1.394       .  A
C777        H784   1.068       .  S
C778        S780   1.817       .  S
S779        H782   1.408       .  S
S780        H781   1.405       .  S
C785        C786   1.396       .  A
C785        C790   1.413       .  A
C786        C787   1.397       .  A
C786        H795   1.082       .  S
C787        C788   1.440       .  A
C787        S791   1.813       .  S
C788        C789   1.420       .  A
C789        C790   1.409       .  A
C789        H796   1.081       .  S
C790        S792   1.796       .  S
S791        H794   1.407       .  S
S792        H793   1.408       .  S
C797        C798   1.417       .  A
C797        C802   1.440       .  A
C798        C799   1.403       .  A
C798        H807   1.080       .  S
C799        C800   1.410       .  A
C799        S803   1.796       .  S
C800        C801   1.396       .  A
C801        C802   1.400       .  A
C801        H808   1.084       .  S
C802        S804   1.798       .  S
S803        H806   1.406       .  S
S804        H805   1.372       .  S
C809        C810   1.418       .  A
C809        C814   1.440       .  A
C810        C811   1.386       .  A
C810        H819   1.056       .  S
C811        C812   1.399       .  A
C811        S815   1.806       .  S
C812        C813   1.404       .  A
C813        C814   1.419       .  A
C813        H820   1.083       .  S
C814        S816   1.804       .  S
S815        H818   1.402       .  S
S816        H817   1.401       .  S
C821        C822   1.418       .  A
C821        C826   1.436       .  A
C822        C823   1.395       .  A
C822        H831   1.076       .  S
C823        C824   1.428       .  A
C823        S827   1.812       .  S
C824        C825   1.410       .  A
C825        C826   1.395       .  A
C825        H832   1.080       .  S
C826        S828   1.813       .  S
S827        H830   1.391       .  S
S828        H829   1.408       .  S
C833        C834   1.400       .  A
C833        C838   1.417       .  A
C834        C835   1.405       .  A
C834        H843   1.084       .  S
C835        C836   1.434       .  A
C835        S839   1.807       .  S
C836        C837   1.419       .  A
C837        C838   1.395       .  A
C837        H844   1.083       .  S
C838        S840   1.802       .  S
S839        H842   1.400       .  S
S840        H841   1.408       .  S
C845        C846   1.415       .  A
C845        C850   1.432       .  A
C846        C847   1.390       .  A
C846        H855   1.077       .  S
C847        C848   1.405       .  A
C847        S851   1.801       .  S
C848        C849   1.405       .  A
C849        C850   1.414       .  A
C849        H856   1.083       .  S
C850        S852   1.812       .  S
S851        H854   1.397       .  S
S852        H853   1.402       .  S
C857        C858   1.436       .  A
C857        C862   1.436       .  A
C858        C859   1.400       .  A
C858        H867   1.077       .  S
C859        C860   1.409       .  A
C859        S863   1.788       .  S
C860        C861   1.405       .  A
C861        C862   1.396       .  A
C861        H868   1.080       .  S
C862        S864   1.785       .  S
S863        H866   1.407       .  S
S864        H865   1.409       .  S
C869        C870   1.396       .  A
C869        C874   1.408       .  A
C870        C871   1.412       .  A
C870        H879   1.083       .  S
C871        C872   1.448       .  A
C871        S875   1.808       .  S
C872        C873   1.428       .  A
C873        C874   1.397       .  A
C873        H880   1.083       .  S
C874        S876   1.803       .  S
S875        H878   1.407       .  S
S876        H877   1.408       .  S
C881        C882   1.419       .  A
C881        C886   1.441       .  A
C882        C883   1.377       .  A
C882        H891   1.055       .  S
C883        C884   1.391       .  A
C883        S887   1.805       .  S
C884        C885   1.404       .  A
C885        C886   1.421       .  A
C885        H892   1.083       .  S
C886        S888   1.805       .  S
S887        H890   1.406       .  S
S888        H889   1.398       .  S
C893        C894   1.409       .  A
C893        C898   1.429       .  A
C894        C895   1.391       .  A
C894        H903   1.075       .  S
C895        C896   1.436       .  A
C895        S899   1.800       .  S
C896        C897   1.418       .  A
C897        C898   1.390       .  A
C897        H904   1.079       .  S
C898        S900   1.809       .  S
S899        H902   1.378       .  S
S900        H901   1.394       .  S
C905        C906   1.415       .  A
C905        C910   1.435       .  A
C906        C907   1.400       .  A
C906        H915   1.061       .  S
C907        C908   1.408       .  A
C907        S911   1.799       .  S
C908        C909   1.407       .  A
C909        C910   1.417       .  A
C909        H916   1.082       .  S
C910        S912   1.812       .  S
S911        H914   1.407       .  S
S912        H913   1.406       .  S
C917        C918   1.416       .  A
C917        C922   1.437       .  A
C918        C919   1.405       .  A
C918        H927   1.080       .  S
C919        C920   1.412       .  A
C919        S923   1.802       .  S
C920        C921   1.401       .  A
C921        C922   1.407       .  A
C921        H928   1.083       .  S
C922        S924   1.809       .  S
S923        H926   1.408       .  S
S924        H925   1.407       .  S
C929        C930   1.412       .  A
C929        C934   1.431       .  A
C930        C931   1.384       .  A
C930        H939   1.069       .  S
C931        C932   1.428       .  A
C931        S935   1.817       .  S
C932        C933   1.412       .  A
C933        C934   1.397       .  A
C933        H940   1.079       .  S
C934        S936   1.816       .  S
S935        H938   1.407       .  S
S936        H937   1.408       .  S
C941        C942   1.406       .  A
C941        C946   1.426       .  A
C942        C943   1.384       .  A
C942        H951   1.059       .  S
C943        C944   1.405       .  A
C943        S947   1.800       .  S
C944        C945   1.410       .  A
C945        C946   1.422       .  A
C945        H952   1.083       .  S
C946        S948   1.801       .  S
S947        H950   1.407       .  S
S948        H949   1.407       .  S
C953        C954   1.408       .  A
C953        C958   1.454       .  A
C954        C955   1.383       .  A
C954        H963   1.046       .  S
C955        C956   1.406       .  A
C955        S959   1.790       .  S
C956        C957   1.400       .  A
C957        C958   1.395       .  A
C957        H964   1.079       .  S
C958        S960   1.819       .  S
S959        H962   1.407       .  S
S960        H961   1.409       .  S
C965        C966   1.424       .  A
C965        C970   1.449       .  A
C966        C967   1.407       .  A
C966        H975   1.080       .  S
C967        C968   1.411       .  A
C967        S971   1.801       .  S
C968        C969   1.400       .  A
C969        C970   1.408       .  A
C969        H976   1.084       .  S
C970        S972   1.823       .  S
S971        H974   1.408       .  S
S972        H973   1.398       .  S
C977        C978   1.425       .  A
C977        C982   1.432       .  A
C978        C979   1.402       .  A
C978        H987   1.083       .  S
C979        C980   1.413       .  A
C979        S983   1.800       .  S
C980        C981   1.405       .  A
C981        C982   1.408       .  A
C981        H988   1.084       .  S
C982        S984   1.805       .  S
S983        H986   1.407       .  S
S984        H985   1.401       .  S
C989        C990   1.419       .  A
C989        C994   1.438       .  A
C990        C991   1.410       .  A
C990        H999   1.080       .  S
C991        C992   1.410       .  A
C991        S995   1.802       .  S
C992        C993   1.397       .  A
C993        C994   1.403       .  A
C993       H1000   1.083       .  S
C994        S996   1.812       .  S
S995        H998   1.407       .  S
S996        H997   1.406       .  S
C1001      C1002   1.421       .  A
C1001      C1006   1.434       .  A
C1002      C1003   1.389       .  A
C1002      H1011   1.070       .  S
C1003      C1004   1.426       .  A
C1003      S1007   1.815       .  S
C1004      C1005   1.411       .  A
C1005      C1006   1.400       .  A
C1005      H1012   1.075       .  S
C1006      S1008   1.800       .  S
S1007      H1010   1.391       .  S
S1008      H1009   1.400       .  S
C1013      C1014   1.420       .  A
C1013      C1018   1.444       .  A
C1014      C1015   1.411       .  A
C1014      H1023   1.081       .  S
C1015      C1016   1.411       .  A
C1015      S1019   1.801       .  S
C1016      C1017   1.391       .  A
C1017      C1018   1.388       .  A
C1017      H1024   1.085       .  S
C1018      S1020   1.818       .  S
S1019      H1022   1.407       .  S
S1020      H1021   1.373       .  S
C1025      C1026   1.405       .  A
C1025      C1030   1.423       .  A
C1026      C1027   1.411       .  A
C1026      H1035   1.083       .  S
C1027      C1028   1.430       .  A
C1027      S1031   1.801       .  S
C1028      C1029   1.411       .  A
C1029      C1030   1.405       .  A
C1029      H1036   1.079       .  S
C1030      S1032   1.800       .  S
S1031      H1034   1.407       .  S
S1032      H1033   1.408       .  S
C1037      C1038   1.430       .  A
C1037      C1042   1.418       .  A
C1038      C1039   1.433       .  A
C1038      H1047   1.082       .  S
C1039      C1040   1.425       .  A
C1039      S1043   1.799       .  S
C1040      C1041   1.386       .  A
C1041      C1042   1.389       .  A
C1041      H1048   1.069       .  S
C1042      S1044   1.813       .  S
S1043      H1046   1.407       .  S
S1044      H1045   1.400       .  S
C1049      C1050   1.409       .  A
C1049      C1054   1.443       .  A
C1050      C1051   1.389       .  A
C1050      H1059   1.065       .  S
C1051      C1052   1.437       .  A
C1051      S1055   1.821       .  S
C1052      C1053   1.407       .  A
C1053      C1054   1.396       .  A
C1053      H1060   1.085       .  S
C1054      S1056   1.816       .  S
S1055      H1058   1.408       .  S
S1056      H1057   1.388       .  S
C1061      C1062   1.410       .  A
C1061      C1066   1.387       .  A
C1062      C1063   1.427       .  A
C1062      H1071   1.083       .  S
C1063      C1064   1.436       .  A
C1063      S1067   1.806       .  S
C1064      C1065   1.429       .  A
C1065      C1066   1.370       .  A
C1065      H1072   1.075       .  S
C1066      S1068   1.799       .  S
S1067      H1070   1.391       .  S
S1068      H1069   1.405       .  S
C1073      C1074   1.399       .  A
C1073      C1078   1.407       .  A
C1074      C1075   1.405       .  A
C1074      H1083   1.084       .  S
C1075      C1076   1.448       .  A
C1075      S1079   1.823       .  S
C1076      C1077   1.425       .  A
C1077      C1078   1.407       .  A
C1077      H1084   1.075       .  S
C1078      S1080   1.798       .  S
S1079      H1082   1.394       .  S
S1080      H1081   1.408       .  S
C1085      C1086   1.403       .  A
C1085      C1090   1.413       .  A
C1086      C1087   1.411       .  A
C1086      H1095   1.084       .  S
C1087      C1088   1.438       .  A
C1087      S1091   1.805       .  S
C1088      C1089   1.412       .  A
C1089      C1090   1.400       .  A
C1089      H1096   1.062       .  S
C1090      S1092   1.804       .  S
S1091      H1094   1.401       .  S
S1092      H1093   1.405       .  S
C1097      C1098   1.423       .  A
C1097      C1102   1.447       .  A
C1098      C1099   1.385       .  A
C1098      H1107   1.079       .  S
C1099      C1100   1.403       .  A
C1099      S1103   1.803       .  S
C1100      C1101   1.395       .  A
C1101      C1102   1.407       .  A
C1101      H1108   1.083       .  S
C1102      S1104   1.808       .  S
S1103      H1106   1.408       .  S
S1104      H1105   1.408       .  S
C1109      C1110   1.419       .  A
C1109      C1114   1.439       .  A
C1110      C1111   1.410       .  A
C1110      H1119   1.080       .  S
C1111      C1112   1.414       .  A
C1111      S1115   1.801       .  S
C1112      C1113   1.397       .  A
C1113      C1114   1.401       .  A
C1113      H1120   1.083       .  S
C1114      S1116   1.813       .  S
S1115      H1118   1.408       .  S
S1116      H1117   1.407       .  S
C1121      C1122   1.418       .  A
C1121      C1126   1.440       .  A
C1122      C1123   1.409       .  A
C1122      H1131   1.081       .  S
C1123      C1124   1.415       .  A
C1123      S1127   1.802       .  S
C1124      C1125   1.397       .  A
C1125      C1126   1.403       .  A
C1125      H1132   1.083       .  S
C1126      S1128   1.811       .  S
S1127      H1130   1.407       .  S
S1128      H1129   1.406       .  S
C1133      C1134   1.402       .  A
C1133      C1138   1.408       .  A
C1134      C1135   1.411       .  A
C1134      H1143   1.084       .  S
C1135      C1136   1.440       .  A
C1135      S1139   1.808       .  S
C1136      C1137   1.416       .  A
C1137      C1138   1.397       .  A
C1137      H1144   1.068       .  S
C1138      S1140   1.804       .  S
S1139      H1142   1.400       .  S
S1140      H1141   1.408       .  S
C1145      C1146   1.417       .  A
C1145      C1150   1.436       .  A
C1146      C1147   1.372       .  A
C1146      H1155   1.081       .  S
C1147      C1148   1.396       .  A
C1147      S1151   1.780       .  S
C1148      C1149   1.407       .  A
C1149      C1150   1.420       .  A
C1149      H1156   1.083       .  S
C1150      S1152   1.808       .  S
S1151      H1154   1.390       .  S
S1152      H1153   1.399       .  S
C1157      C1158   1.400       .  A
C1157      C1162   1.421       .  A
C1158      C1159   1.393       .  A
C1158      H1167   1.084       .  S
C1159      C1160   1.431       .  A
C1159      S1163   1.801       .  S
C1160      C1161   1.413       .  A
C1161      C1162   1.411       .  A
C1161      H1168   1.079       .  S
C1162      S1164   1.801       .  S
S1163      H1166   1.405       .  S
S1164      H1165   1.392       .  S
C1169      C1170   1.403       .  A
C1169      C1174   1.426       .  A
C1170      C1171   1.402       .  A
C1170      H1179   1.076       .  S
C1171      C1172   1.449       .  A
C1171      S1175   1.800       .  S
C1172      C1173   1.413       .  A
C1173      C1174   1.397       .  A
C1173      H1180   1.056       .  S
C1174      S1176   1.813       .  S
S1175      H1178   1.407       .  S
S1176      H1177   1.407       .  S
C1181      C1182   1.425       .  A
C1181      C1186   1.451       .  A
C1182      C1183   1.407       .  A
C1182      H1191   1.071       .  S
C1183      C1184   1.404       .  A
C1183      S1187   1.801       .  S
C1184      C1185   1.394       .  A
C1185      C1186   1.396       .  A
C1185      H1192   1.085       .  S
C1186      S1188   1.821       .  S
S1187      H1190   1.407       .  S
S1188      H1189   1.371       .  S
C1193      C1194   1.432       .  A
C1193      C1198   1.428       .  A
C1194      C1195   1.381       .  A
C1194      H1203   1.079       .  S
C1195      C1196   1.393       .  A
C1195      S1199   1.802       .  S
C1196      C1197   1.406       .  A
C1197      C1198   1.417       .  A
C1197      H1204   1.084       .  S
C1198      S1200   1.789       .  S
S1199      H1202   1.405       .  S
S1200      H1201   1.407       .  S
C1205      C1206   1.401       .  A
C1205      C1210   1.403       .  A
C1206      C1207   1.414       .  A
C1206      H1215   1.084       .  S
C1207      C1208   1.441       .  A
C1207      S1211   1.812       .  S
C1208      C1209   1.417       .  A
C1209      C1210   1.383       .  A
C1209      H1216   1.066       .  S
C1210      S1212   1.806       .  S
S1211      H1214   1.384       .  S
S1212      H1213   1.404       .  S
C1217      C1218   1.408       .  A
C1217      C1222   1.435       .  A
C1218      C1219   1.385       .  A
C1218      H1227   1.076       .  S
C1219      C1220   1.428       .  A
C1219      S1223   1.818       .  S
C1220      C1221   1.411       .  A
C1221      C1222   1.388       .  A
C1221      H1228   1.080       .  S
C1222      S1224   1.814       .  S
S1223      H1226   1.395       .  S
S1224      H1225   1.408       .  S
C1229      C1230   1.416       .  A
C1229      C1234   1.449       .  A
C1230      C1231   1.412       .  A
C1230      H1239   1.076       .  S
C1231      C1232   1.417       .  A
C1231      S1235   1.801       .  S
C1232      C1233   1.391       .  A
C1233      C1234   1.395       .  A
C1233      H1240   1.083       .  S
C1234      S1236   1.812       .  S
S1235      H1238   1.399       .  S
S1236      H1237   1.408       .  S
C1241      C1242   1.422       .  A
C1241      C1246   1.449       .  A
C1242      C1243   1.413       .  A
C1242      H1251   1.076       .  S
C1243      C1244   1.413       .  A
C1243      S1247   1.801       .  S
C1244      C1245   1.396       .  A
C1245      C1246   1.407       .  A
C1245      H1252   1.083       .  S
C1246      S1248   1.805       .  S
S1247      H1250   1.408       .  S
S1248      H1249   1.408       .  S
C1253      C1254   1.429       .  A
C1253      C1258   1.441       .  A
C1254      C1255   1.383       .  A
C1254      H1263   1.074       .  S
C1255      C1256   1.392       .  A
C1255      S1259   1.804       .  S
C1256      C1257   1.403       .  A
C1257      C1258   1.419       .  A
C1257      H1264   1.083       .  S
C1258      S1260   1.810       .  S
S1259      H1262   1.405       .  S
S1260      H1261   1.397       .  S
C1265      C1266   1.409       .  A
C1265      C1270   1.436       .  A
C1266      C1267   1.390       .  A
C1266      H1275   1.066       .  S
C1267      C1268   1.422       .  A
C1267      S1271   1.801       .  S
C1268      C1269   1.413       .  A
C1269      C1270   1.399       .  A
C1269      H1276   1.079       .  S
C1270      S1272   1.808       .  S
S1271      H1274   1.408       .  S
S1272      H1273   1.408       .  S
C1277      C1278   1.397       .  A
C1277      C1282   1.409       .  A
C1278      C1279   1.413       .  A
C1278      H1287   1.083       .  S
C1279      C1280   1.449       .  A
C1279      S1283   1.806       .  S
C1280      C1281   1.425       .  A
C1281      C1282   1.400       .  A
C1281      H1288   1.084       .  S
C1282      S1284   1.800       .  S
S1283      H1286   1.407       .  S
S1284      H1285   1.407       .  S
C1289      C1290   1.404       .  A
C1289      C1294   1.405       .  A
C1290      C1291   1.415       .  A
C1290      H1299   1.083       .  S
C1291      C1292   1.432       .  A
C1291      S1295   1.803       .  S
C1292      C1293   1.414       .  A
C1293      C1294   1.382       .  A
C1293      H1300   1.060       .  S
C1294      S1296   1.820       .  S
S1295      H1298   1.402       .  S
S1296      H1297   1.406       .  S
C1301      C1302   1.420       .  A
C1301      C1306   1.434       .  A
C1302      C1303   1.396       .  A
C1302      H1311   1.084       .  S
C1303      C1304   1.412       .  A
C1303      S1307   1.803       .  S
C1304      C1305   1.404       .  A
C1305      C1306   1.416       .  A
C1305      H1312   1.082       .  S
C1306      S1308   1.807       .  S
S1307      H1310   1.408       .  S
S1308      H1309   1.406       .  S
C1313      C1314   1.415       .  A
C1313      C1318   1.445       .  A
C1314      C1315   1.396       .  A
C1314      H1323   1.069       .  S
C1315      C1316   1.421       .  A
C1315      S1319   1.801       .  S
C1316      C1317   1.408       .  A
C1317      C1318   1.390       .  A
C1317      H1324   1.078       .  S
C1318      S1320   1.819       .  S
S1319      H1322   1.404       .  S
S1320      H1321   1.390       .  S
C1325      C1326   1.403       .  A
C1325      C1330   1.413       .  A
C1326      C1327   1.416       .  A
C1326      H1335   1.082       .  S
C1327      C1328   1.441       .  A
C1327      S1331   1.814       .  S
C1328      C1329   1.415       .  A
C1329      C1330   1.396       .  A
C1329      H1336   1.074       .  S
C1330      S1332   1.802       .  S
S1331      H1334   1.406       .  S
S1332      H1333   1.408       .  S
C1337      C1338   1.418       .  A
C1337      C1342   1.430       .  A
C1338      C1339   1.406       .  A
C1338      H1347   1.075       .  S
C1339      C1340   1.415       .  A
C1339      S1343   1.799       .  S
C1340      C1341   1.402       .  A
C1341      C1342   1.399       .  A
C1341      H1348   1.084       .  S
C1342      S1344   1.802       .  S
S1343      H1346   1.407       .  S
S1344      H1345   1.406       .  S
C1349      C1350   1.435       .  A
C1349      C1354   1.452       .  A
C1350      C1351   1.385       .  A
C1350      H1359   1.070       .  S
C1351      C1352   1.395       .  A
C1351      S1355   1.811       .  S
C1352      C1353   1.398       .  A
C1353      C1354   1.419       .  A
C1353      H1360   1.085       .  S
C1354      S1356   1.789       .  S
S1355      H1358   1.408       .  S
S1356      H1357   1.408       .  S
C1361      C1362   1.416       .  A
C1361      C1366   1.439       .  A
C1362      C1363   1.399       .  A
C1362      H1371   1.074       .  S
C1363      C1364   1.422       .  A
C1363      S1367   1.809       .  S
C1364      C1365   1.409       .  A
C1365      C1366   1.386       .  A
C1365      H1372   1.079       .  S
C1366      S1368   1.816       .  S
S1367      H1370   1.407       .  S
S1368      H1369   1.377       .  S
C1373      C1374   1.384       .  A
C1373      C1378   1.411       .  A
C1374      C1375   1.388       .  A
C1374      H1383   1.086       .  S
C1375      C1376   1.455       .  A
C1375      S1379   1.812       .  S
C1376      C1377   1.405       .  A
C1377      C1378   1.412       .  A
C1377      H1384   1.074       .  S
C1378      S1380   1.801       .  S
S1379      H1382   1.386       .  S
S1380      H1381   1.406   1_556  S
C1385      C1386   1.403       .  A
C1385      C1390   1.421       .  A
C1386      C1387   1.404       .  A
C1386      H1395   1.084       .  S
C1387      C1388   1.431       .  A
C1387      S1391   1.810       .  S
C1388      C1389   1.419       .  A
C1389      C1390   1.407       .  A
C1389      H1396   1.083       .  S
C1390      S1392   1.802       .  S
S1391      H1394   1.398       .  S
S1392      H1393   1.406       .  S
C1397      C1398   1.402       .  A
C1397      C1402   1.391       .  A
C1398      C1399   1.425       .  A
C1398      H1407   1.082       .  S
C1399      C1400   1.441       .  A
C1399      S1403   1.803       .  S
C1400      C1401   1.421       .  A
C1401      C1402   1.376       .  A
C1401      H1408   1.057       .  S
C1402      S1404   1.810       .  S
S1403      H1406   1.407       .  S
S1404      H1405   1.406       .  S
C1409      C1410   1.413       .  A
C1409      C1414   1.436       .  A
C1410      C1411   1.389       .  A
C1410      H1419   1.068       .  S
C1411      C1412   1.425       .  A
C1411      S1415   1.803       .  S
C1412      C1413   1.409       .  A
C1413      C1414   1.389       .  A
C1413      H1420   1.077       .  S
C1414      S1416   1.823       .  S
S1415      H1418   1.405       .  S
S1416      H1417   1.392       .  S
C1421      C1422   1.417       .  A
C1421      C1426   1.440       .  A
C1422      C1423   1.412       .  A
C1422      H1431   1.081       .  S
C1423      C1424   1.415       .  A
C1423      S1427   1.801       .  S
C1424      C1425   1.395       .  A
C1425      C1426   1.395       .  A
C1425      H1432   1.082       .  S
C1426      S1428   1.816       .  S
S1427      H1430   1.407       .  S
S1428      H1429   1.406       .  S
C1433      C1434   1.413       .  A
C1433      C1438   1.442       .  A
C1434      C1435   1.416       .  A
C1434      H1443   1.083       .  S
C1435      C1436   1.414       .  A
C1435      S1439   1.803       .  S
C1436      C1437   1.382       .  A
C1437      C1438   1.380       .  A
C1437      H1444   1.082       .  S
C1438      S1440   1.818       .  S
S1439      H1442   1.404       .  S
S1440      H1441   1.386       .  S
C1445      C1446   1.407       .  A
C1445      C1450   1.415       .  A
C1446      C1447   1.411       .  A
C1446      H1455   1.083       .  S
C1447      C1448   1.427       .  A
C1447      S1451   1.804       .  S
C1448      C1449   1.413       .  A
C1449      C1450   1.396       .  A
C1449      H1456   1.077       .  S
C1450      S1452   1.803       .  S
S1451      H1454   1.408       .  S
S1452      H1453   1.408       .  S
C1457      C1458   1.394       .  A
C1457      C1462   1.425       .  A
C1458      C1459   1.401       .  A
C1458      H1467   1.079       .  S
C1459      C1460   1.463       .  A
C1459      S1463   1.811       .  S
C1460      C1461   1.407       .  A
C1461      C1462   1.397       .  A
C1461      H1468   1.054       .  S
C1462      S1464   1.810       .  S
S1463      H1466   1.409       .  S
S1464      H1465   1.408       .  S
C1469      C1470   1.427       .  A
C1469      C1474   1.437       .  A
C1470      C1471   1.394       .  A
C1470      H1479   1.081       .  S
C1471      C1472   1.406       .  A
C1471      S1475   1.804       .  S
C1472      C1473   1.400       .  A
C1473      C1474   1.406       .  A
C1473      H1480   1.084       .  S
C1474      S1476   1.792       .  S
S1475      H1478   1.400       .  S
S1476      H1477   1.408       .  S
C1481      C1482   1.409       .  A
C1481      C1486   1.432       .  A
C1482      C1483   1.409       .  A
C1482      H1491   1.077       .  S
C1483      C1484   1.410       .  A
C1483      S1487   1.802       .  S
C1484      C1485   1.399       .  A
C1485      C1486   1.403       .  A
C1485      H1492   1.082       .  S
C1486      S1488   1.811       .  S
S1487      H1490   1.407       .  S
S1488      H1489   1.406       .  S
C1493      C1494   1.419       .  A
C1493      C1498   1.433       .  A
C1494      C1495   1.379       .  A
C1494      H1503   1.070       .  S
C1495      C1496   1.419       .  A
C1495      S1499   1.819       .  S
C1496      C1497   1.408       .  A
C1497      C1498   1.407       .  A
C1497      H1504   1.075       .  S
C1498      S1500   1.807       .  S
S1499      H1502   1.395       .  S
S1500      H1501   1.408       .  S
C1505      C1506   1.399       .  A
C1505      C1510   1.415       .  A
C1506      C1507   1.393       .  A
C1506      H1515   1.084       .  S
C1507      C1508   1.423       .  A
C1507      S1511   1.804       .  S
C1508      C1509   1.415       .  A
C1509      C1510   1.407       .  A
C1509      H1516   1.081       .  S
C1510      S1512   1.791       .  S
S1511      H1514   1.408       .  S
S1512      H1513   1.401       .  S
C1517      C1518   1.425       .  A
C1517      C1522   1.424       .  A
C1518      C1519   1.396       .  A
C1518      H1527   1.082       .  S
C1519      C1520   1.415       .  A
C1519      S1523   1.805       .  S
C1520      C1521   1.407       .  A
C1521      C1522   1.411       .  A
C1521      H1528   1.083       .  S
C1522      S1524   1.800       .  S
S1523      H1526   1.408       .  S
S1524      H1525   1.407       .  S
C1529      C1530   1.422       .  A
C1529      C1534   1.446       .  A
C1530      C1531   1.414       .  A
C1530      H1539   1.079       .  S
C1531      C1532   1.413       .  A
C1531      S1535   1.796       .  S
C1532      C1533   1.390       .  A
C1533      C1534   1.396       .  A
C1533      H1540   1.085       .  S
C1534      S1536   1.791       .  S
S1535      H1538   1.408       .  S
S1536      H1537   1.407       .  S
C1541      C1542   1.419       .  A
C1541      C1546   1.439       .  A
C1542      C1543   1.369       .  A
C1542      H1551   1.080       .  S
C1543      C1544   1.386       .  A
C1543      S1547   1.778       .  S
C1544      C1545   1.410       .  A
C1545      C1546   1.429       .  A
C1545      H1552   1.083       .  S
C1546      S1548   1.806       .  S
S1547      H1550   1.395       .  S
S1548      H1549   1.393       .  S
C1553      C1554   1.415       .  A
C1553      C1558   1.424       .  A
C1554      C1555   1.399       .  A
C1554      H1563   1.075       .  S
C1555      C1556   1.421       .  A
C1555      S1559   1.797       .  S
C1556      C1557   1.411       .  A
C1557      C1558   1.384       .  A
C1557      H1564   1.076       .  S
C1558      S1560   1.800       .  S
S1559      H1562   1.408       .  S
S1560      H1561   1.408       .  S
C1565      C1566   1.398       .  A
C1565      C1570   1.408       .  A
C1566      C1567   1.410       .  A
C1566      H1575   1.083       .  S
C1567      C1568   1.447       .  A
C1567      S1571   1.807       .  S
C1568      C1569   1.427       .  A
C1569      C1570   1.404       .  A
C1569      H1576   1.081       .  S
C1570      S1572   1.802       .  S
S1571      H1574   1.408       .  S
S1572      H1573   1.408       .  S
C1577      C1578   1.416       .  A
C1577      C1582   1.430       .  A
C1578      C1579   1.379       .  A
C1578      H1587   1.083       .  S
C1579      C1580   1.397       .  A
C1579      S1583   1.793       .  S
C1580      C1581   1.409       .  A
C1581      C1582   1.422       .  A
C1581      H1588   1.083       .  S
C1582      S1584   1.800       .  S
S1583      H1586   1.400       .  S
S1584      H1585   1.400       .  S
C1589      C1590   1.394       .  A
C1589      C1594   1.417       .  A
C1590      C1591   1.392       .  A
C1590      H1599   1.085       .  S
C1591      C1592   1.432       .  A
C1591      S1595   1.807       .  S
C1592      C1593   1.414       .  A
C1593      C1594   1.414       .  A
C1593      H1600   1.080       .  S
C1594      S1596   1.788       .  S
S1595      H1598   1.408       .  S
S1596      H1597   1.407       .  S
C1601      C1602   1.410       .  A
C1601      C1606   1.426       .  A
C1602      C1603   1.387       .  A
C1602      H1611   1.071       .  S
C1603      C1604   1.433       .  A
C1603      S1607   1.821       .  S
C1604      C1605   1.416       .  A
C1605      C1606   1.408       .  A
C1605      H1612   1.081       .  S
C1606      S1608   1.806       .  S
S1607      H1610   1.392       .  S
S1608      H1609   1.406       .  S
C1613      C1614   1.422       .  A
C1613      C1618   1.449       .  A
C1614      C1615   1.400       .  A
C1614      H1623   1.066       .  S
C1615      C1616   1.408       .  A
C1615      S1619   1.804       .  S
C1616      C1617   1.399       .  A
C1617      C1618   1.413       .  A
C1617      H1624   1.083       .  S
C1618      S1620   1.809       .  S
S1619      H1622   1.408       .  S
S1620      H1621   1.408       .  S
C1625      C1626   1.423       .  A
C1625      C1630   1.439       .  A
C1626      C1627   1.404       .  A
C1626      H1635   1.083       .  S
C1627      C1628   1.415       .  A
C1627      S1631   1.803       .  S
C1628      C1629   1.399       .  A
C1629      C1630   1.408       .  A
C1629      H1636   1.084       .  S
C1630      S1632   1.800       .  S
S1631      H1634   1.406       .  S
S1632      H1633   1.407       .  S
C1637      C1638   1.421       .  A
C1637      C1642   1.428       .  A
C1638      C1639   1.399       .  A
C1638      H1647   1.078       .  S
C1639      C1640   1.416       .  A
C1639      S1643   1.800       .  S
C1640      C1641   1.408       .  A
C1641      C1642   1.391       .  A
C1641      H1648   1.075       .  S
C1642      S1644   1.812       .  S
S1643      H1646   1.396       .  S
S1644      H1645   1.377       .  S
C1649      C1650   1.401       .  A
C1649      C1654   1.412       .  A
C1650      C1651   1.404       .  A
C1650      H1659   1.084       .  S
C1651      C1652   1.425       .  A
C1651      S1655   1.808       .  S
C1652      C1653   1.415       .  A
C1653      C1654   1.394       .  A
C1653      H1660   1.083       .  S
C1654      S1656   1.801       .  S
S1655      H1658   1.404       .  S
S1656      H1657   1.405       .  S
C1661      C1662   1.391       .  A
C1661      C1666   1.411       .  A
C1662      C1663   1.398       .  A
C1662      H1671   1.083       .  S
C1663      C1664   1.442       .  A
C1663      S1667   1.807       .  S
C1664      C1665   1.421       .  A
C1665      C1666   1.406       .  A
C1665      H1672   1.079       .  S
C1666      S1668   1.802       .  S
S1667      H1670   1.407       .  S
S1668      H1669   1.408       .  S
C1673      C1674   1.414       .  A
C1673      C1678   1.446       .  A
C1674      C1675   1.406       .  A
C1674      H1683   1.076       .  S
C1675      C1676   1.413       .  A
C1675      S1679   1.798       .  S
C1676      C1677   1.391       .  A
C1677      C1678   1.395       .  A
C1677      H1684   1.083       .  S
C1678      S1680   1.815       .  S
S1679      H1682   1.408       .  S
S1680      H1681   1.407       .  S
C1685      C1686   1.417       .  A
C1685      C1690   1.438       .  A
C1686      C1687   1.397       .  A
C1686      H1695   1.077       .  S
C1687      C1688   1.413       .  A
C1687      S1691   1.804       .  S
C1688      C1689   1.399       .  A
C1689      C1690   1.407       .  A
C1689      H1696   1.084       .  S
C1690      S1692   1.810       .  S
S1691      H1694   1.407       .  S
S1692      H1693   1.388       .  S
C1697      C1698   1.407       .  A
C1697      C1702   1.422       .  A
C1698      C1699   1.386       .  A
C1698      H1707   1.064       .  S
C1699      C1700   1.430       .  A
C1699      S1703   1.814       .  S
C1700      C1701   1.407       .  A
C1701      C1702   1.394       .  A
C1701      H1708   1.075       .  S
C1702      S1704   1.782       .  S
S1703      H1706   1.408       .  S
S1704      H1705   1.407       .  S
C1709      C1710   1.430       .  A
C1709      C1714   1.431       .  A
C1710      C1711   1.383       .  A
C1710      H1719   1.080       .  S
C1711      C1712   1.395       .  A
C1711      S1715   1.800       .  S
C1712      C1713   1.407       .  A
C1713      C1714   1.425       .  A
C1713      H1720   1.082       .  S
C1714      S1716   1.800       .  S
S1715      H1718   1.406       .  S
S1716      H1717   1.406       .  S
C1721      C1722   1.413       .  A
C1721      C1726   1.432       .  A
C1722      C1723   1.380       .  A
C1722      H1731   1.065       .  S
C1723      C1724   1.400       .  A
C1723      S1727   1.801       .  S
C1724      C1725   1.404       .  A
C1725      C1726   1.413       .  A
C1725      H1732   1.083       .  S
C1726      S1728   1.805       .  S
S1727      H1730   1.404       .  S
S1728      H1729   1.403       .  S
C1733      C1734   1.409       .  A
C1733      C1738   1.442       .  A
C1734      C1735   1.390       .  A
C1734      H1743   1.046       .  S
C1735      C1736   1.417       .  A
C1735      S1739   1.803       .  S
C1736      C1737   1.412       .  A
C1737      C1738   1.397       .  A
C1737      H1744   1.074       .  S
C1738      S1740   1.817       .  S
S1739      H1742   1.408       .  S
S1740      H1741   1.408       .  S
C1745      C1746   1.424       .  A
C1745      C1750   1.443       .  A
C1746      C1747   1.406       .  A
C1746      H1755   1.078       .  S
C1747      C1748   1.407       .  A
C1747      S1751   1.801       .  S
C1748      C1749   1.401       .  A
C1749      C1750   1.400       .  A
C1749      H1756   1.084       .  S
C1750      S1752   1.823       .  S
S1751      H1754   1.408       .  S
S1752      H1753   1.399       .  S
C1757      C1758   1.427       .  A
C1757      C1762   1.443       .  A
C1758      C1759   1.402       .  A
C1758      H1767   1.079       .  S
C1759      C1760   1.403       .  A
C1759      S1763   1.802       .  S
C1760      C1761   1.401       .  A
C1761      C1762   1.398       .  A
C1761      H1768   1.084       .  S
C1762      S1764   1.822       .  S
S1763      H1766   1.407       .  S
S1764      H1765   1.393       .  S
C1769      C1770   1.419       .  A
C1769      C1774   1.448       .  A
C1770      C1771   1.399       .  A
C1770      H1779   1.074       .  S
C1771      C1772   1.409       .  A
C1771      S1775   1.802       .  S
C1772      C1773   1.399       .  A
C1773      C1774   1.410       .  A
C1773      H1780   1.082       .  S
C1774      S1776   1.814       .  S
S1775      H1778   1.408       .  S
S1776      H1777   1.407       .  S
C1781      C1782   1.413       .  A
C1781      C1786   1.428       .  A
C1782      C1783   1.388       .  A
C1782      H1791   1.061       .  S
C1783      C1784   1.403       .  A
C1783      S1787   1.800       .  S
C1784      C1785   1.410       .  A
C1785      C1786   1.417       .  A
C1785      H1792   1.083       .  S
C1786      S1788   1.799       .  S
S1787      H1790   1.407       .  S
S1788      H1789   1.404       .  S
C1793      C1794   1.407       .  A
C1793      C1798   1.419       .  A
C1794      C1795   1.389       .  A
C1794      H1803   1.071       .  S
C1795      C1796   1.430       .  A
C1795      S1799   1.802       .  S
C1796      C1797   1.419       .  A
C1797      C1798   1.393       .  A
C1797      H1804   1.072       .  S
C1798      S1800   1.807       .  S
S1799      H1802   1.407       .  S
S1800      H1801   1.407       .  S
C1805      C1806   1.418       .  A
C1805      C1810   1.449       .  A
C1806      C1807   1.407       .  A
C1806      H1815   1.080       .  S
C1807      C1808   1.408       .  A
C1807      S1811   1.805       .  S
C1808      C1809   1.383       .  A
C1809      C1810   1.388       .  A
C1809      H1816   1.082       .  S
C1810      S1812   1.819       .  S
S1811      H1814   1.402   1_565  S
S1812      H1813   1.408       .  S
C1817      C1818   1.409       .  A
C1817      C1822   1.437       .  A
C1818      C1819   1.393       .  A
C1818      H1827   1.059       .  S
C1819      C1820   1.407       .  A
C1819      S1823   1.801       .  S
C1820      C1821   1.404       .  A
C1821      C1822   1.412       .  A
C1821      H1828   1.082       .  S
C1822      S1824   1.814       .  S
S1823      H1826   1.408       .  S
S1824      H1825   1.406       .  S
C1829      C1830   1.418       .  A
C1829      C1834   1.424       .  A
C1830      C1831   1.393       .  A
C1830      H1839   1.078       .  S
C1831      C1832   1.422       .  A
C1831      S1835   1.797       .  S
C1832      C1833   1.412       .  A
C1833      C1834   1.396       .  A
C1833      H1840   1.074       .  S
C1834      S1836   1.816       .  S
S1835      H1838   1.409       .  S
S1836      H1837   1.406       .  S
C1841      C1842   1.418       .  A
C1841      C1846   1.424       .  A
C1842      C1843   1.394       .  A
C1842      H1851   1.081       .  S
C1843      C1844   1.410       .  A
C1843      S1847   1.802       .  S
C1844      C1845   1.406       .  A
C1845      C1846   1.406       .  A
C1845      H1852   1.084       .  S
C1846      S1848   1.799       .  S
S1847      H1850   1.408       .  S
S1848      H1849   1.405       .  S
C1853      C1854   1.421       .  A
C1853      C1858   1.444       .  A
C1854      C1855   1.403       .  A
C1854      H1863   1.080       .  S
C1855      C1856   1.407       .  A
C1855      S1859   1.802       .  S
C1856      C1857   1.398       .  A
C1857      C1858   1.398       .  A
C1857      H1864   1.085       .  S
C1858      S1860   1.821       .  S
S1859      H1862   1.407       .  S
S1860      H1861   1.393       .  S
C1865      C1866   1.411       .  A
C1865      C1870   1.442       .  A
C1866      C1867   1.386       .  A
C1866      H1875   1.054       .  S
C1867      C1868   1.403       .  A
C1867      S1871   1.806       .  S
C1868      C1869   1.401       .  A
C1869      C1870   1.415       .  A
C1869      H1876   1.084       .  S
C1870      S1872   1.807       .  S
S1871      H1874   1.404       .  S
S1872      H1873   1.404       .  S
C1877      C1878   1.403       .  A
C1877      C1882   1.434       .  A
C1878      C1879   1.386       .  A
C1878      H1887   1.073       .  S
C1879      C1880   1.451       .  A
C1879      S1883   1.815       .  S
C1880      C1881   1.410       .  A
C1881      C1882   1.400       .  A
C1881      H1888   1.055       .  S
C1882      S1884   1.817       .  S
S1883      H1886   1.409       .  S
S1884      H1885   1.408       .  S
C1889      C1890   1.399       .  A
C1889      C1894   1.417       .  A
C1890      C1891   1.403       .  A
C1890      H1899   1.084       .  S
C1891      C1892   1.446       .  A
C1891      S1895   1.810       .  S
C1892      C1893   1.416       .  A
C1893      C1894   1.403       .  A
C1893      H1900   1.079       .  S
C1894      S1896   1.804       .  S
S1895      H1898   1.387       .  S
S1896      H1897   1.391   1_655  S
C1901      C1902   1.421       .  A
C1901      C1906   1.428       .  A
C1902      C1903   1.393       .  A
C1902      H1911   1.083       .  S
C1903      C1904   1.409       .  A
C1903      S1907   1.803       .  S
C1904      C1905   1.406       .  A
C1905      C1906   1.410       .  A
C1905      H1912   1.084       .  S
C1906      S1908   1.796       .  S
S1907      H1910   1.408       .  S
S1908      H1909   1.407       .  S
