geometry optimzed in LAMMPS
_audit_creation_date              2020-11-30 
_audit_creation_method            'lammps2cif' 
_symmetry_space_group_name_H-M    'P1' 
_symmetry_Int_Tables_number       1 
_symmetry_cell_setting            triclinic 
loop_ 
_symmetry_equiv_pos_as_xyz 
  x,y,z 
_cell_length_a                    39.60819928481801 
_cell_length_b                    39.51689651778679 
_cell_length_c                    35.77510946404304 
_cell_angle_alpha                 89.64145332444218 
_cell_angle_beta                  89.71175406579056 
_cell_angle_gamma                 90.4742305174074 
loop_ 
_atom_site_label 
_atom_site_type_symbol 
_atom_site_fract_x 
_atom_site_fract_y 
_atom_site_fract_z 
_atom_site_charge 
C1          C  0.50007945  0.99987574  0.48025216     0.00980
C2          C  0.49962136  0.00019576  0.01835716     0.00980
N3          N  0.49234418  0.14310224  0.32530142    -0.26880
N4          N  0.49266779  0.11491968  0.30562822    -0.34730
C5          C  0.49129307  0.08821778  0.32891482     0.01460
C6          C  0.48954371  0.10006383  0.36503726     0.07490
C7          C  0.49052141  0.13499931  0.36193162    -0.05610
H8          H  0.49247563  0.06206048  0.32023702     0.08160
H9          H  0.49124835  0.15304533  0.38452869     0.09360
Cu10       Cu  0.49636270  0.11361287  0.24822107     0.44170
Cu11       Cu  0.49662268  0.19049724  0.30007940     0.41990
Cu12       Cu  0.49899319  0.19135769  0.19650557     0.43880
N13         N  0.49866463  0.11592797  0.19074149    -0.34260
N14         N  0.49969522  0.14431153  0.17105501    -0.28520
C15         C  0.50006221  0.13663320  0.13436757    -0.04770
C16         C  0.49920427  0.10169995  0.13119380     0.07600
C17         C  0.49817744  0.08953553  0.16744573     0.01400
H18         H  0.49994936  0.15500625  0.11182908     0.09050
H19         H  0.49660230  0.06331298  0.17626998     0.08130
N20         N  0.49969784  0.23417087  0.22991086    -0.35710
N21         N  0.49997040  0.23387634  0.26693588    -0.27890
C22         C  0.50162644  0.26597400  0.27918232    -0.03130
C23         C  0.50224602  0.28739342  0.24846558     0.05480
C24         C  0.50067227  0.26644447  0.21774566     0.03570
H25         H  0.50173147  0.27320517  0.30827713     0.08680
H26         H  0.50052175  0.27407726  0.18867414     0.07510
N27         N  0.50900847  0.85628596  0.32789610    -0.26880
N28         N  0.50927382  0.88476217  0.30836215    -0.34730
C29         C  0.51140209  0.91105136  0.33182032     0.01460
C30         C  0.51297383  0.89859968  0.36791480     0.07490
C31         C  0.51083296  0.86375544  0.36453226    -0.05610
H32         H  0.51038079  0.93736645  0.32334935     0.08160
H33         H  0.50936050  0.84535187  0.38700523     0.09360
Cu34       Cu  0.50422051  0.88673305  0.25102272     0.44170
Cu35       Cu  0.50450047  0.80929956  0.30267303     0.41990
Cu36       Cu  0.49814236  0.80904941  0.19961332     0.43880
N37         N  0.49991543  0.88466420  0.19363341    -0.34260
N38         N  0.49775955  0.85644289  0.17414623    -0.28520
C39         C  0.49696972  0.86439957  0.13742872    -0.04620
C40         C  0.49862720  0.89934550  0.13396055     0.07600
C41         C  0.50056338  0.91119440  0.17014889     0.01400
H42         H  0.49643052  0.84615637  0.11501935     0.09050
H43         H  0.50306570  0.93729665  0.17879079     0.08130
N44         N  0.50025938  0.76590673  0.23308559    -0.35710
N45         N  0.50222637  0.76603145  0.27003907    -0.27890
C46         C  0.50345470  0.73388666  0.28254494    -0.03130
C47         C  0.50268746  0.71265795  0.25203552     0.05480
C48         C  0.50030096  0.73366477  0.22119198     0.03570
H49         H  0.50513362  0.72654265  0.31163313     0.08680
H50         H  0.49886623  0.72610377  0.19225149     0.07510
C51         C  0.00060857  0.48920178  0.48119393     0.00980
C52         C  0.99954188  0.48924690  0.01950268     0.00980
N53         N  0.14355430  0.50137749  0.32757904    -0.26880
N54         N  0.11539105  0.50594154  0.30866000    -0.34730
C55         C  0.08961225  0.50941718  0.33272137     0.01460
C56         C  0.10206922  0.50711614  0.36866457     0.07490
C57         C  0.13635487  0.50154628  0.36444294    -0.05610
H58         H  0.06355153  0.51277603  0.32461091     0.08160
H59         H  0.15467475  0.49812896  0.38643780     0.09360
Cu60       Cu  0.11286348  0.50648211  0.25108885     0.44170
Cu61       Cu  0.18992505  0.49642551  0.30107796     0.41990
Cu62       Cu  0.18984865  0.50492028  0.19806115     0.43880
N63         N  0.11441603  0.50550717  0.19347085    -0.34260
N64         N  0.14250922  0.50539451  0.17339824    -0.28520
C65         C  0.13442653  0.50344568  0.13689258    -0.04620
C66         C  0.09955447  0.50227870  0.13420488     0.07600
C67         C  0.08781208  0.50344418  0.17057664     0.01400
H68         H  0.15249723  0.50168823  0.11422803     0.09050
H69         H  0.06175603  0.50213278  0.17979722     0.08130
N70         N  0.23287464  0.50048165  0.23069033    -0.35710
N71         N  0.23279446  0.49661131  0.26745584    -0.27890
C72         C  0.26482506  0.49406272  0.27931568    -0.03130
C73         C  0.28621796  0.49622330  0.24863245     0.05480
C74         C  0.26499714  0.50066971  0.21832371     0.03570
H75         H  0.27197504  0.49099741  0.30825557     0.08680
H76         H  0.27227747  0.50435475  0.18941873     0.07510
N77         N  0.85735798  0.50020248  0.32706694    -0.26880
N78         N  0.88541629  0.50361075  0.30721107    -0.34730
C79         C  0.91196606  0.50380420  0.33029393     0.01460
C80         C  0.90017741  0.50080621  0.36655399     0.07490
C81         C  0.86538554  0.49840468  0.36361996    -0.05610
H82         H  0.93807496  0.50520799  0.32127802     0.08160
H83         H  0.84743502  0.49442478  0.38613987     0.09360
Cu84       Cu  0.88709499  0.50641552  0.24961582     0.44170
Cu85       Cu  0.81025435  0.49671561  0.30206979     0.41990
Cu86       Cu  0.80958012  0.50509214  0.19903012     0.43880
N87         N  0.88487249  0.50789384  0.19201427    -0.34260
N88         N  0.85648368  0.50670556  0.17282462    -0.28520
C89         C  0.86397267  0.50702545  0.13600598    -0.04620
C90         C  0.89874372  0.50916643  0.13214198     0.07600
C91         C  0.91109907  0.50936223  0.16819871     0.01400
H92         H  0.84555463  0.50604734  0.11381008     0.09050
H93         H  0.93733055  0.51001155  0.17653432     0.08130
N94         N  0.76675928  0.50268378  0.23282002    -0.35710
N95         N  0.76698797  0.49820935  0.26948136    -0.27890
C96         C  0.73495596  0.49677325  0.28205597    -0.03130
C97         C  0.71330846  0.50150089  0.25209373     0.05480
C98         C  0.73458638  0.50482749  0.22131514     0.03570
H99         H  0.72819763  0.49236468  0.31096775     0.08680
H100        H  0.72732961  0.50880370  0.19254839     0.07510
O101        O  0.49811981  0.44932196  0.21946831    -0.72530
O102        O  0.50016648  0.55103637  0.21871689    -0.73510
O103        O  0.55006507  0.49968504  0.21887566    -0.62130
O104        O  0.44871757  0.50079766  0.21943924    -0.70540
O105        O  0.44871524  0.49989784  0.28138251    -0.70090
O106        O  0.55017593  0.49996076  0.28072938    -0.61350
O107        O  0.49965253  0.55093698  0.28082196    -0.73850
O108        O  0.49940104  0.44918395  0.28152276    -0.72630
Cu109      Cu  0.49930192  0.50020527  0.21697475     1.04560
Cu110      Cu  0.49948859  0.50001743  0.28327548     1.04330
C111        C  0.49846220  0.43326109  0.25058115     0.93670
C112        C  0.49978893  0.56693071  0.24968313     0.92810
C113        C  0.56627924  0.49938068  0.24967023     0.84950
C114        C  0.43263322  0.50070048  0.25050212     0.91220
C115        C  0.65864546  0.49242348  0.21928060    -0.11850
C116        C  0.67564706  0.50182935  0.25205796     0.05150
C117        C  0.65625144  0.51028958  0.28398450    -0.07140
C118        C  0.62089596  0.50816280  0.28257843    -0.07880
C119        C  0.60389787  0.49886229  0.24976036    -0.02440
C120        C  0.62328534  0.49068193  0.21773700     0.04380
N121        N  0.60783761  0.47942394  0.18377884     0.66890
H122        H  0.67290051  0.48517031  0.19476365     0.15790
H123        H  0.60655714  0.51525392  0.30713127     0.15500
N124        N  0.67160405  0.52296392  0.31737192     0.74590
O125        O  0.61777413  0.49139196  0.15278454    -0.38860
O126        O  0.58888813  0.45357619  0.18416510    -0.38800
O127        O  0.69119076  0.54829834  0.31562144    -0.39510
O128        O  0.66141073  0.51258446  0.34894692    -0.39570
C129        C  0.37836284  0.48651013  0.21967628    -0.11850
C130        C  0.39515666  0.50081289  0.25034040     0.05150
C131        C  0.37580695  0.51336259  0.28053629    -0.07140
C132        C  0.34047651  0.51058413  0.27953175    -0.07880
C133        C  0.32371297  0.49618205  0.24892123    -0.02440
C134        C  0.34305497  0.48350460  0.21882306     0.04380
N135        N  0.32764604  0.46582569  0.18827483     0.66890
H136        H  0.39291703  0.47614908  0.19678555     0.15790
H137        H  0.32592063  0.52107203  0.30233096     0.15500
N138        N  0.39123653  0.53031209  0.31158478     0.74590
O139        O  0.33925693  0.46943634  0.15554681    -0.38860
O140        O  0.30598496  0.44285940  0.19464211    -0.38800
O141        O  0.41279643  0.55350481  0.30588449    -0.39510
O142        O  0.37949385  0.52604565  0.34416590    -0.39570
C143        C  0.05568286  0.51315369  0.04044340    -0.11850
C144        C  0.03065164  0.48772134  0.04325107     0.05150
C145        C  0.03102924  0.46561292  0.07450177    -0.07140
C146        C  0.05453508  0.47053464  0.10285469    -0.07880
C147        C  0.07845600  0.49670556  0.10089867    -0.02440
C148        C  0.07983803  0.51776154  0.06878047     0.04380
N149        N  0.10357556  0.54538611  0.06560741     0.66890
H150        H  0.05473864  0.53139251  0.01780778     0.15790
H151        H  0.05368514  0.45400268  0.12714103     0.15500
N152        N  0.00634450  0.43918303  0.07902327     0.74590
O153        O  0.11490780  0.55409382  0.03389935    -0.38860
O154        O  0.11020103  0.56364836  0.09349578    -0.38800
O155        O  0.00690725  0.41406016  0.05748536    -0.39510
O156        O  0.98895054  0.43746891  0.10865035    -0.39570
C157        C  0.03105534  0.52512632  0.43567021    -0.11850
C158        C  0.03225833  0.49659940  0.45930586     0.05150
C159        C  0.06104744  0.47544688  0.45766090    -0.07140
C160        C  0.08563425  0.48166652  0.42982445    -0.07880
C161        C  0.08173935  0.50769427  0.40337374    -0.02440
C162        C  0.05511535  0.53086142  0.40762016     0.04380
N163        N  0.05174259  0.55984201  0.38333629     0.66890
H164        H  0.01009983  0.54248018  0.43811403     0.15790
H165        H  0.10641240  0.46418415  0.42676483     0.15500
N166        N  0.06532577  0.44691540  0.48222419     0.74590
O167        O  0.02291703  0.57168377  0.37634633    -0.38860
O168        O  0.07759187  0.57567147  0.37172030    -0.38800
O169        O  0.04060064  0.42822879  0.49108824    -0.39510
O170        O  0.09456421  0.43840328  0.49234588    -0.39570
C171        C  0.91410071  0.48381688  0.07099516    -0.11850
C172        C  0.91934588  0.50925012  0.09760917     0.05150
C173        C  0.94733659  0.53127972  0.09369844    -0.07140
C174        C  0.97091660  0.52531094  0.06541040    -0.07880
C175        C  0.96824531  0.49728165  0.04151161    -0.02440
C176        C  0.93841840  0.47708159  0.04316592     0.04380
N177        N  0.93266748  0.44908387  0.01849783     0.66890
H178        H  0.89235228  0.46715887  0.07389959     0.15790
H179        H  0.99269219  0.54200032  0.06309849     0.15500
N180        N  0.95268234  0.55924480  0.11867766     0.74590
O181        O  0.95637653  0.42960916  0.00959416    -0.38860
O182        O  0.90304538  0.44195217  0.00810532    -0.38800
O183        O  0.98228438  0.56902340  0.12629385    -0.39510
O184        O  0.92799474  0.57613800  0.13060491    -0.39570
C185        C  0.94493569  0.51326446  0.45955749    -0.11850
C186        C  0.96964046  0.48791938  0.45720806     0.05150
C187        C  0.96882957  0.46556427  0.42649814    -0.07140
C188        C  0.94521058  0.47003510  0.39823136    -0.07880
C189        C  0.92145711  0.49592934  0.39981133    -0.02440
C190        C  0.92047332  0.51732950  0.43139780     0.04380
N191        N  0.89658615  0.54445748  0.43439904     0.66890
H192        H  0.94617052  0.53159210  0.48185204     0.15790
H193        H  0.94578490  0.45330990  0.37433237     0.15500
N194        N  0.99298998  0.43906669  0.42258392     0.74590
O195        O  0.88673586  0.55409500  0.46619200    -0.38860
O196        O  0.88769774  0.56100760  0.40585559    -0.38800
O197        O  0.99008731  0.41280320  0.44258402    -0.39510
O198        O  0.01180432  0.43841568  0.39401441    -0.39570
C199        C  0.47183257  0.65852187  0.24804305    -0.11850
C200        C  0.50282083  0.67539242  0.25232477     0.05150
C201        C  0.53297182  0.65649802  0.25513837    -0.07140
C202        C  0.53089522  0.62098269  0.25376571    -0.07880
C203        C  0.49989673  0.60415350  0.24949806    -0.02440
C204        C  0.46983970  0.62305528  0.24641396     0.04380
N205        N  0.43729684  0.60700151  0.24191645     0.66890
H206        H  0.44898899  0.67328350  0.24542371     0.15790
H207        H  0.55369935  0.60614560  0.25629185     0.15500
N208        N  0.56572093  0.67249186  0.25852231     0.74590
O209        O  0.41087460  0.62171928  0.25283998    -0.38860
O210        O  0.43433728  0.57976942  0.22395180    -0.38800
O211        O  0.56904536  0.70108598  0.27362399    -0.39510
O212        O  0.59197394  0.65689593  0.24866767    -0.39570
C213        C  0.47682694  0.34166495  0.22925971    -0.11850
C214        C  0.50252330  0.32475350  0.24846290     0.05150
C215        C  0.52669658  0.34362938  0.26873807    -0.07140
C216        C  0.52386791  0.37903267  0.26999697    -0.07880
C217        C  0.49817667  0.39593796  0.25076323    -0.02440
C218        C  0.47398164  0.37705030  0.23053359     0.04380
N219        N  0.44561279  0.39303611  0.21282736     0.66890
H220        H  0.45800321  0.32699121  0.21442667     0.15790
H221        H  0.54269863  0.39371425  0.28481651     0.15500
N222        N  0.55502025  0.32762609  0.28650899     0.74590
O223        O  0.43145935  0.37923209  0.18522293    -0.38860
O224        O  0.43181644  0.41838422  0.22759772    -0.38800
O225        O  0.56900054  0.30241644  0.27164598    -0.39510
O226        O  0.56889839  0.34125391  0.31438762    -0.39570
C227        C  0.47118233  0.05558505  0.09759964    -0.11850
C228        C  0.49625641  0.08071255  0.09737469     0.05150
C229        C  0.51871904  0.08327420  0.06657939    -0.07140
C230        C  0.51678654  0.05891144  0.03807129    -0.07880
C231        C  0.49355877  0.03182522  0.04022902    -0.02440
C232        C  0.46927864  0.03144214  0.06938620     0.04380
N233        N  0.44338076  0.00583681  0.07159514     0.66890
H234        H  0.45321268  0.05432014  0.12052564     0.15790
H235        H  0.53579776  0.05918451  0.01627100     0.15500
N236        N  0.54539401  0.10817704  0.06526496     0.74590
O237        O  0.43418360  0.99397408  0.10291630    -0.38860
O238        O  0.42692290  0.99793329  0.04282415    -0.38800
O239        O  0.56219607  0.11491898  0.09421028    -0.39510
O240        O  0.55531106  0.11996287  0.03417933    -0.39570
C241        C  0.52328919  0.06290411  0.40460911    -0.11850
C242        C  0.49249358  0.07912285  0.39897014     0.05150
C243        C  0.46525321  0.07304546  0.42400471    -0.07140
C244        C  0.46960553  0.04962222  0.45343819    -0.07880
C245        C  0.49974484  0.03147759  0.45724661    -0.02440
C246        C  0.52739794  0.03939330  0.43351117     0.04380
N247        N  0.55962849  0.02346575  0.43802577     0.66890
H248        H  0.54423843  0.06824822  0.38579870     0.15790
H249        H  0.44851738  0.04351731  0.47169798     0.15500
N250        N  0.43268560  0.08842926  0.41881753     0.74590
O251        O  0.57794188  0.01750802  0.40987455    -0.38860
O252        O  0.57183885  0.01953682  0.47022556    -0.38800
O253        O  0.42263377  0.09680911  0.38666036    -0.39510
O254        O  0.41239199  0.09066516  0.44600700    -0.39570
C255        C  0.52628437  0.94624693  0.10013532    -0.11850
C256        C  0.50181468  0.92050981  0.09987302     0.05150
C257        C  0.48044930  0.91720899  0.06848205    -0.07140
C258        C  0.48257694  0.94149913  0.03954276    -0.07880
C259        C  0.50525418  0.96901748  0.04154313    -0.02440
C260        C  0.52860465  0.97012833  0.07133562     0.04380
N261        N  0.55408826  0.99609940  0.07346470     0.66890
H262        H  0.54362300  0.94806993  0.12338248     0.15790
H263        H  0.46422976  0.94061472  0.01728619     0.15500
N264        N  0.45472848  0.89140879  0.06676163     0.74590
O265        O  0.56171283  0.00890452  0.10458441    -0.38860
O266        O  0.57176479  0.00340622  0.04508907    -0.38800
O267        O  0.43641699  0.88493788  0.09493197    -0.39510
O268        O  0.44711918  0.87844681  0.03572422    -0.39570
C269        C  0.53130932  0.95004594  0.45509854    -0.11850
C270        C  0.50096425  0.96793985  0.45824932     0.05150
C271        C  0.47368310  0.95938257  0.43468269    -0.07140
C272        C  0.47816421  0.93506536  0.40696876    -0.07880
C273        C  0.50911433  0.91890156  0.40202594    -0.02440
C274        C  0.53612002  0.92588875  0.42674617     0.04380
N275        N  0.56897079  0.91091706  0.42202351     0.66890
H276        H  0.55201180  0.95644654  0.47344008     0.15790
H277        H  0.45750749  0.92937837  0.38819270     0.15500
N278        N  0.44154121  0.97571985  0.43787448     0.74590
O279        O  0.59485175  0.92528387  0.43522996    -0.38860
O280        O  0.57234812  0.88271441  0.40615031    -0.38800
O281        O  0.42437879  0.98193150  0.40902495    -0.39510
O282        O  0.42824196  0.97985867  0.46958409    -0.39570
C283        C  0.50007944  0.99987572  0.98025216     0.00980
C284        C  0.49962137  0.00019577  0.51835716     0.00980
N285        N  0.49234418  0.14310223  0.82530142    -0.26880
N286        N  0.49266779  0.11491967  0.80562823    -0.34730
C287        C  0.49129307  0.08821777  0.82891482     0.01460
C288        C  0.48954370  0.10006382  0.86503726     0.07490
C289        C  0.49052140  0.13499930  0.86193162    -0.05610
H290        H  0.49247563  0.06206048  0.82023701     0.08160
H291        H  0.49124834  0.15304532  0.88452870     0.09360
Cu292      Cu  0.49636271  0.11361288  0.74822107     0.44170
Cu293      Cu  0.49662268  0.19049723  0.80007941     0.41990
Cu294      Cu  0.49899320  0.19135769  0.69650558     0.43880
N295        N  0.49866465  0.11592798  0.69074149    -0.34260
N296        N  0.49969524  0.14431153  0.67105502    -0.28520
C297        C  0.50006223  0.13663321  0.63436757    -0.04770
C298        C  0.49920429  0.10169996  0.63119380     0.07600
C299        C  0.49817746  0.08953553  0.66744573     0.01400
H300        H  0.49994938  0.15500626  0.61182908     0.09050
H301        H  0.49660232  0.06331299  0.67626998     0.08130
N302        N  0.49969785  0.23417088  0.72991088    -0.35710
N303        N  0.49997040  0.23387634  0.76693590    -0.27890
C304        C  0.50162644  0.26597399  0.77918234    -0.03130
C305        C  0.50224603  0.28739342  0.74846561     0.05480
C306        C  0.50067228  0.26644447  0.71774569     0.03570
H307        H  0.50173147  0.27320516  0.80827715     0.08680
H308        H  0.50052177  0.27407727  0.68867416     0.07510
N309        N  0.50900847  0.85628596  0.82789609    -0.26880
N310        N  0.50927382  0.88476217  0.80836214    -0.34730
C311        C  0.51140209  0.91105136  0.83182032     0.01460
C312        C  0.51297383  0.89859968  0.86791479     0.07490
C313        C  0.51083295  0.86375544  0.86453225    -0.05610
H314        H  0.51038079  0.93736645  0.82334935     0.08160
H315        H  0.50936049  0.84535187  0.88700522     0.09360
Cu316      Cu  0.50422051  0.88673305  0.75102271     0.44170
Cu317      Cu  0.50450047  0.80929956  0.80267302     0.41990
Cu318      Cu  0.49814236  0.80904941  0.69961330     0.43880
N319        N  0.49991544  0.88466420  0.69363341    -0.34260
N320        N  0.49775956  0.85644289  0.67414622    -0.28520
C321        C  0.49696973  0.86439957  0.63742871    -0.04620
C322        C  0.49862721  0.89934550  0.63396054     0.07600
C323        C  0.50056338  0.91119440  0.67014888     0.01400
H324        H  0.49643053  0.84615637  0.61501934     0.09050
H325        H  0.50306571  0.93729665  0.67879079     0.08130
N326        N  0.50025938  0.76590673  0.73308558    -0.35710
N327        N  0.50222637  0.76603145  0.77003906    -0.27890
C328        C  0.50345469  0.73388667  0.78254494    -0.03130
C329        C  0.50268746  0.71265795  0.75203552     0.05480
C330        C  0.50030096  0.73366477  0.72119197     0.03570
H331        H  0.50513361  0.72654266  0.81163313     0.08680
H332        H  0.49886624  0.72610376  0.69225149     0.07510
C333        C  0.00060862  0.48920180  0.98119394     0.00980
C334        C  0.99954183  0.48924689  0.51950267     0.00980
N335        N  0.14355430  0.50137756  0.82757901    -0.26880
N336        N  0.11539104  0.50594162  0.80865998    -0.34730
C337        C  0.08961226  0.50941727  0.83272136     0.01460
C338        C  0.10206924  0.50711623  0.86866456     0.07490
C339        C  0.13635488  0.50154635  0.86444291    -0.05610
H340        H  0.06355153  0.51277614  0.82461091     0.08160
H341        H  0.15467477  0.49812901  0.88643776     0.09360
Cu342      Cu  0.11286346  0.50648218  0.75108883     0.44170
Cu343      Cu  0.18992503  0.49642555  0.80107791     0.41990
Cu344      Cu  0.18984863  0.50492033  0.69806112     0.43880
N345        N  0.11441601  0.50550722  0.69347082    -0.34260
N346        N  0.14250920  0.50539455  0.67339821    -0.28520
C347        C  0.13442650  0.50344571  0.63689256    -0.04620
C348        C  0.09955444  0.50227873  0.63420486     0.07600
C349        C  0.08781206  0.50344423  0.67057662     0.01400
H350        H  0.15249720  0.50168825  0.61422800     0.09050
H351        H  0.06175601  0.50213283  0.67979721     0.08130
N352        N  0.23287463  0.50048169  0.73069029    -0.35710
N353        N  0.23279445  0.49661135  0.76745580    -0.27890
C354        C  0.26482505  0.49406275  0.77931564    -0.03130
C355        C  0.28621795  0.49622334  0.74863242     0.05480
C356        C  0.26499714  0.50066976  0.71832367     0.03570
H357        H  0.27197502  0.49099743  0.80825553     0.08680
H358        H  0.27227746  0.50435480  0.68941870     0.07510
N359        N  0.85735801  0.50020245  0.82706695    -0.26880
N360        N  0.88541632  0.50361069  0.80721107    -0.34730
C361        C  0.91196610  0.50380412  0.83029391     0.01460
C362        C  0.90017746  0.50080615  0.86655398     0.07490
C363        C  0.86538558  0.49840466  0.86361996    -0.05610
H364        H  0.93807499  0.50520789  0.82127799     0.08160
H365        H  0.84743507  0.49442479  0.88613988     0.09360
Cu366      Cu  0.88709500  0.50641546  0.74961582     0.44170
Cu367      Cu  0.81025437  0.49671563  0.80206982     0.41990
Cu368      Cu  0.80958011  0.50509218  0.69903015     0.43880
N369        N  0.88487248  0.50789382  0.69201427    -0.34260
N370        N  0.85648366  0.50670557  0.67282464    -0.28520
C371        C  0.86397263  0.50702548  0.63600598    -0.04620
C372        C  0.89874368  0.50916643  0.63214197     0.07600
C373        C  0.91109905  0.50936220  0.66819869     0.01400
H374        H  0.84555459  0.50604738  0.61381010     0.09050
H375        H  0.93733053  0.51001151  0.67653429     0.08130
N376        N  0.76675928  0.50268383  0.73282007    -0.35710
N377        N  0.76698798  0.49820940  0.76948140    -0.27890
C378        C  0.73495597  0.49677328  0.78205603    -0.03130
C379        C  0.71330846  0.50150093  0.75209380     0.05480
C380        C  0.73458638  0.50482754  0.72131520     0.03570
H381        H  0.72819764  0.49236470  0.81096780     0.08680
H382        H  0.72732960  0.50880375  0.69254845     0.07510
O383        O  0.49811982  0.44932196  0.71946835    -0.72530
O384        O  0.50016649  0.55103637  0.71871693    -0.73510
O385        O  0.55006507  0.49968504  0.71887571    -0.62130
O386        O  0.44871758  0.50079766  0.71943926    -0.70540
O387        O  0.44871523  0.49989784  0.78138254    -0.70090
O388        O  0.55017593  0.49996076  0.78072944    -0.61350
O389        O  0.49965252  0.55093698  0.78082200    -0.73850
O390        O  0.49940103  0.44918395  0.78152281    -0.72630
Cu391      Cu  0.49930193  0.50020527  0.71697479     1.04560
Cu392      Cu  0.49948858  0.50001743  0.78327552     1.04330
C393        C  0.49846220  0.43326109  0.75058120     0.93670
C394        C  0.49978892  0.56693071  0.74968316     0.92810
C395        C  0.56627924  0.49938068  0.74967029     0.84950
C396        C  0.43263321  0.50070048  0.75050215     0.91220
C397        C  0.65864546  0.49242351  0.71928066    -0.11850
C398        C  0.67564706  0.50182937  0.75205802     0.05150
C399        C  0.65625144  0.51028958  0.78398457    -0.07140
C400        C  0.62089596  0.50816278  0.78257850    -0.07880
C401        C  0.60389787  0.49886230  0.74976043    -0.02440
C402        C  0.62328535  0.49068195  0.71773706     0.04380
N403        N  0.60783762  0.47942397  0.68377889     0.66890
H404        H  0.67290052  0.48517035  0.69476371     0.15790
H405        H  0.60655714  0.51525389  0.80713134     0.15500
N406        N  0.67160405  0.52296389  0.81737200     0.74590
O407        O  0.61777414  0.49139202  0.65278460    -0.38860
O408        O  0.58888815  0.45357621  0.68416513    -0.38800
O409        O  0.69119074  0.54829833  0.81562154    -0.39510
O410        O  0.66141073  0.51258440  0.84894699    -0.39570
C411        C  0.37836284  0.48651016  0.71967627    -0.11850
C412        C  0.39515666  0.50081290  0.75034041     0.05150
C413        C  0.37580694  0.51336258  0.78053630    -0.07140
C414        C  0.34047649  0.51058413  0.77953175    -0.07880
C415        C  0.32371296  0.49618208  0.74892121    -0.02440
C416        C  0.34305497  0.48350465  0.71882304     0.04380
N417        N  0.32764604  0.46582577  0.68827478     0.66890
H418        H  0.39291703  0.47614913  0.69678554     0.15790
H419        H  0.32592061  0.52107201  0.80233096     0.15500
N420        N  0.39123651  0.53031204  0.81158482     0.74590
O421        O  0.33925694  0.46943645  0.65554676    -0.38860
O422        O  0.30598497  0.44285948  0.69464203    -0.38800
O423        O  0.41279640  0.55350478  0.80588457    -0.39510
O424        O  0.37949383  0.52604556  0.84416594    -0.39570
C425        C  0.05568282  0.51315367  0.54044337    -0.11850
C426        C  0.03065160  0.48772133  0.54325107     0.05150
C427        C  0.03102919  0.46561293  0.57450179    -0.07140
C428        C  0.05453504  0.47053466  0.60285470    -0.07880
C429        C  0.07845597  0.49670558  0.60089866    -0.02440
C430        C  0.07983800  0.51776154  0.56878043     0.04380
N431        N  0.10357554  0.54538609  0.56560734     0.66890
H432        H  0.05473861  0.53139248  0.51780774     0.15790
H433        H  0.05368509  0.45400272  0.62714105     0.15500
N434        N  0.00634445  0.43918305  0.57902331     0.74590
O435        O  0.11490778  0.55409377  0.53389927    -0.38860
O436        O  0.11020102  0.56364836  0.59349569    -0.38800
O437        O  0.00690719  0.41406016  0.55748542    -0.39510
O438        O  0.98895049  0.43746896  0.60865039    -0.39570
C439        C  0.03105538  0.52512638  0.93567024    -0.11850
C440        C  0.03225838  0.49659945  0.95930587     0.05150
C441        C  0.06104749  0.47544694  0.95766090    -0.07140
C442        C  0.08563429  0.48166659  0.92982444    -0.07880
C443        C  0.08173938  0.50769435  0.90337375    -0.02440
C444        C  0.05511539  0.53086150  0.90762019     0.04380
N445        N  0.05174264  0.55984212  0.88333635     0.66890
H446        H  0.01009987  0.54248024  0.93811408     0.15790
H447        H  0.10641244  0.46418423  0.92676481     0.15500
N448        N  0.06532584  0.44691546  0.98222418     0.74590
O449        O  0.02291709  0.57168393  0.87634647    -0.38860
O450        O  0.07759192  0.57567155  0.87172033    -0.38800
O451        O  0.04060073  0.42822883  0.99108823    -0.39510
O452        O  0.09456429  0.43840337  0.99234588    -0.39570
C453        C  0.91410067  0.48381687  0.57099516    -0.11850
C454        C  0.91934583  0.50925012  0.59760916     0.05150
C455        C  0.94733654  0.53127973  0.59369842    -0.07140
C456        C  0.97091655  0.52531094  0.56541038    -0.07880
C457        C  0.96824526  0.49728164  0.54151160    -0.02440
C458        C  0.93841836  0.47708157  0.54316592     0.04380
N459        N  0.93266745  0.44908384  0.51849785     0.66890
H460        H  0.89235224  0.46715885  0.57389960     0.15790
H461        H  0.99269214  0.54200032  0.56309846     0.15500
N462        N  0.95268228  0.55924483  0.61867762     0.74590
O463        O  0.95637650  0.42960914  0.50959417    -0.38860
O464        O  0.90304535  0.44195212  0.50810536    -0.38800
O465        O  0.98228431  0.56902345  0.62629378    -0.39510
O466        O  0.92799467  0.57613801  0.63060488    -0.39570
C467        C  0.94493574  0.51326446  0.95955747    -0.11850
C468        C  0.96964052  0.48791939  0.95720806     0.05150
C469        C  0.96882964  0.46556427  0.92649814    -0.07140
C470        C  0.94521066  0.47003508  0.89823136    -0.07880
C471        C  0.92145717  0.49592931  0.89981132    -0.02440
C472        C  0.92047336  0.51732946  0.93139779     0.04380
N473        N  0.89658617  0.54445743  0.93439902     0.66890
H474        H  0.94617054  0.53159209  0.98185203     0.15790
H475        H  0.94578499  0.45330987  0.87433237     0.15500
N476        N  0.99299006  0.43906670  0.92258394     0.74590
O477        O  0.88673584  0.55409492  0.96619197    -0.38860
O478        O  0.88769780  0.56100758  0.90585556    -0.38800
O479        O  0.99008740  0.41280321  0.94258404    -0.39510
O480        O  0.01180442  0.43841569  0.89401443    -0.39570
C481        C  0.47183256  0.65852186  0.74804309    -0.11850
C482        C  0.50282083  0.67539242  0.75232477     0.05150
C483        C  0.53297182  0.65649802  0.75513835    -0.07140
C484        C  0.53089522  0.62098269  0.75376570    -0.07880
C485        C  0.49989672  0.60415350  0.74949809    -0.02440
C486        C  0.46983969  0.62305528  0.74641401     0.04380
N487        N  0.43729683  0.60700150  0.74191654     0.66890
H488        H  0.44898898  0.67328350  0.74542377     0.15790
H489        H  0.55369936  0.60614561  0.75629182     0.15500
N490        N  0.56572093  0.67249187  0.75852226     0.74590
O491        O  0.41087459  0.62171927  0.75284009    -0.38860
O492        O  0.43433726  0.57976942  0.72395189    -0.38800
O493        O  0.56904537  0.70108599  0.77362392    -0.39510
O494        O  0.59197394  0.65689594  0.74866760    -0.39570
C495        C  0.47682695  0.34166495  0.72925974    -0.11850
C496        C  0.50252331  0.32475349  0.74846294     0.05150
C497        C  0.52669658  0.34362937  0.76873812    -0.07140
C498        C  0.52386790  0.37903267  0.76999702    -0.07880
C499        C  0.49817667  0.39593796  0.75076328    -0.02440
C500        C  0.47398164  0.37705030  0.73053363     0.04380
N501        N  0.44561280  0.39303611  0.71282739     0.66890
H502        H  0.45800323  0.32699121  0.71442670     0.15790
H503        H  0.54269862  0.39371425  0.78481657     0.15500
N504        N  0.55502024  0.32762609  0.78650905     0.74590
O505        O  0.43145937  0.37923209  0.68522295    -0.38860
O506        O  0.43181644  0.41838422  0.72759774    -0.38800
O507        O  0.56900054  0.30241645  0.77164604    -0.39510
O508        O  0.56889837  0.34125390  0.81438769    -0.39570
C509        C  0.47118234  0.05558506  0.59759964    -0.11850
C510        C  0.49625643  0.08071256  0.59737469     0.05150
C511        C  0.51871906  0.08327421  0.56657939    -0.07140
C512        C  0.51678655  0.05891145  0.53807130    -0.07880
C513        C  0.49355878  0.03182523  0.54022903    -0.02440
C514        C  0.46927866  0.03144216  0.56938620     0.04380
N515        N  0.44338078  0.00583682  0.57159514     0.66890
H516        H  0.45321270  0.05432015  0.62052564     0.15790
H517        H  0.53579778  0.05918452  0.51627101     0.15500
N518        N  0.54539403  0.10817705  0.56526496     0.74590
O519        O  0.43418362  0.99397409  0.60291630    -0.38860
O520        O  0.42692292  0.99793330  0.54282414    -0.38800
O521        O  0.56219609  0.11491899  0.59421029    -0.39510
O522        O  0.55531108  0.11996288  0.53417934    -0.39570
C523        C  0.52328918  0.06290410  0.90460911    -0.11850
C524        C  0.49249356  0.07912284  0.89897014     0.05150
C525        C  0.46525319  0.07304544  0.92400471    -0.07140
C526        C  0.46960551  0.04962220  0.95343819    -0.07880
C527        C  0.49974483  0.03147758  0.95724661    -0.02440
C528        C  0.52739793  0.03939329  0.93351117     0.04380
N529        N  0.55962848  0.02346574  0.93802578     0.66890
H530        H  0.54423842  0.06824821  0.88579871     0.15790
H531        H  0.44851736  0.04351728  0.97169797     0.15500
N532        N  0.43268558  0.08842923  0.91881752     0.74590
O533        O  0.57794187  0.01750802  0.90987456    -0.38860
O534        O  0.57183883  0.01953682  0.97022557    -0.38800
O535        O  0.42263376  0.09680908  0.88666035    -0.39510
O536        O  0.41239196  0.09066512  0.94600698    -0.39570
C537        C  0.52628438  0.94624693  0.60013532    -0.11850
C538        C  0.50181469  0.92050981  0.59987301     0.05150
C539        C  0.48044931  0.91720900  0.56848204    -0.07140
C540        C  0.48257695  0.94149914  0.53954276    -0.07880
C541        C  0.50525419  0.96901749  0.54154313    -0.02440
C542        C  0.52860466  0.97012833  0.57133562     0.04380
N543        N  0.55408827  0.99609940  0.57346470     0.66890
H544        H  0.54362301  0.94806993  0.62338247     0.15790
H545        H  0.46422976  0.94061473  0.51728619     0.15500
N546        N  0.45472849  0.89140880  0.56676163     0.74590
O547        O  0.56171285  0.00890452  0.60458441    -0.38860
O548        O  0.57176480  0.00340622  0.54508906    -0.38800
O549        O  0.43641699  0.88493789  0.59493197    -0.39510
O550        O  0.44711918  0.87844682  0.53572421    -0.39570
C551        C  0.53130931  0.95004593  0.95509854    -0.11850
C552        C  0.50096424  0.96793984  0.95824932     0.05150
C553        C  0.47368309  0.95938256  0.93468269    -0.07140
C554        C  0.47816420  0.93506535  0.90696876    -0.07880
C555        C  0.50911433  0.91890156  0.90202594    -0.02440
C556        C  0.53612002  0.92588875  0.92674616     0.04380
N557        N  0.56897079  0.91091706  0.92202350     0.66890
H558        H  0.55201179  0.95644654  0.97344008     0.15790
H559        H  0.45750748  0.92937836  0.88819270     0.15500
N560        N  0.44154119  0.97571983  0.93787449     0.74590
O561        O  0.59485174  0.92528388  0.93522994    -0.38860
O562        O  0.57234812  0.88271441  0.90615029    -0.38800
O563        O  0.42437877  0.98193148  0.90902496    -0.39510
O564        O  0.42824195  0.97985865  0.96958410    -0.39570
loop_ 
_geom_bond_atom_site_label_1 
_geom_bond_atom_site_label_2 
_geom_bond_distance 
_geom_bond_site_symmetry_2 
_ccdc_geom_bond_type 
C1          C245   1.492   1_565  S
C1          C270   1.492       .  S
C1          C284   1.363   1_565  D
C2          C231   1.499       .  S
C2          C259   1.500   1_545  S
C2          C283   1.363   1_544  D
N3            N4   1.321       .  A
N3            C7   1.348       .  A
N3          Cu11   2.079       .  S
N4            C5   1.341       .  A
N4          Cu10   2.059       .  S
C5            C6   1.379       .  A
C5            H8   1.082       .  S
C6            C7   1.385       .  A
C6          C242   1.471       .  S
C7            H9   1.082       .  S
Cu10         N13   2.059       .  S
Cu11         N21   2.081       .  S
Cu12         N14   2.076       .  S
Cu12         N20   2.078       .  S
N13          N14   1.321       .  A
N13          C17   1.339       .  A
N14          C15   1.349       .  A
C15          C16   1.386       .  A
C15          H18   1.082       .  S
C16          C17   1.381       .  A
C16         C228   1.476       .  S
C17          H19   1.083       .  S
N20          N21   1.325       .  A
N20          C24   1.345       .  A
N21          C22   1.346       .  A
C22          C23   1.383       .  A
C22          H25   1.081       .  S
C23          C24   1.381       .  A
C23         C214   1.476       .  S
C24          H26   1.081       .  S
N27          N28   1.321       .  A
N27          C31   1.347       .  A
N27         Cu35   2.076       .  S
N28          C29   1.342       .  A
N28         Cu34   2.063       .  S
C29          C30   1.381       .  A
C29          H32   1.082       .  S
C30          C31   1.385       .  A
C30         C273   1.473       .  S
C31          H33   1.082       .  S
Cu34         N37   2.063       .  S
Cu35         N45   2.078       .  S
Cu36         N38   2.078       .  S
Cu36         N44   2.080       .  S
N37          N38   1.321       .  A
N37          C41   1.339       .  A
N38          C39   1.349       .  A
C39          C40   1.387       .  A
C39          H42   1.082       .  S
C40          C41   1.382       .  A
C40         C256   1.479       .  S
C41          H43   1.083       .  S
N44          N45   1.325       .  A
N44          C48   1.346       .  A
N45          C46   1.345       .  A
C46          C47   1.381       .  A
C46          H49   1.081       .  S
C47          C48   1.381       .  A
C47         C200   1.473       .  S
C48          H50   1.081       .  S
C51         C158   1.500       .  S
C51         C186   1.501   1_455  S
C51         C334   1.371   1_455  D
C52         C144   1.502   1_655  S
C52         C175   1.502       .  S
C52         C333   1.371   1_654  D
N53          N54   1.321       .  A
N53          C57   1.348       .  A
N53         Cu61   2.074       .  S
N54          C55   1.341       .  A
N54         Cu60   2.063       .  S
C55          C56   1.382       .  A
C55          H58   1.083       .  S
C56          C57   1.385       .  A
C56         C161   1.477       .  S
C57          H59   1.082       .  S
Cu60         N63   2.063       .  S
Cu61         N71   2.076       .  S
Cu62         N64   2.076       .  S
Cu62         N70   2.078       .  S
N63          N64   1.321       .  A
N63          C67   1.340       .  A
N64          C65   1.349       .  A
C65          C66   1.385       .  A
C65          H68   1.082       .  S
C66          C67   1.381       .  A
C66         C147   1.475       .  S
C67          H69   1.083       .  S
N70          N71   1.323       .  A
N70          C74   1.345       .  A
N71          C72   1.344       .  A
C72          C73   1.385       .  A
C72          H75   1.081       .  S
C73          C74   1.386       .  A
C73         C133   1.485       .  S
C74          H76   1.081       .  S
N77          N78   1.321       .  A
N77          C81   1.349       .  A
N77         Cu85   2.077       .  S
N78          C79   1.340       .  A
N78         Cu84   2.063       .  S
C79          C80   1.381       .  A
C79          H82   1.083       .  S
C80          C81   1.385       .  A
C80         C189   1.474       .  S
C81          H83   1.082       .  S
Cu84         N87   2.064       .  S
Cu85         N95   2.079       .  S
Cu86         N88   2.077       .  S
Cu86         N94   2.079       .  S
N87          N88   1.321       .  A
N87          C91   1.341       .  A
N88          C89   1.349       .  A
C89          C90   1.385       .  A
C89          H92   1.082       .  S
C90          C91   1.382       .  A
C90         C172   1.477       .  S
C91          H93   1.083       .  S
N94          N95   1.322       .  A
N94          C98   1.344       .  A
N95          C96   1.345       .  A
C96          C97   1.389       .  A
C96          H99   1.080       .  S
C97          C98   1.388       .  A
C97         C116   1.492       .  S
C98         H100   1.081       .  S
O101       Cu109   2.012       .  S
O101        C111   1.278       .  A
O102       Cu109   2.010       .  S
O102        C112   1.277       .  A
O103       Cu109   2.012       .  S
O103        C113   1.278       .  A
O104       Cu109   2.005       .  S
O104        C114   1.278       .  A
O105       Cu110   2.012       .  S
O105        C114   1.278       .  A
O106       Cu110   2.009       .  S
O106        C113   1.279       .  A
O107       Cu110   2.014       .  S
O107        C112   1.277       .  A
O108       Cu110   2.010       .  S
O108        C111   1.277       .  A
Cu109      Cu110   2.372       .  S
C111        C217   1.475       .  S
C112        C203   1.471       .  S
C113        C119   1.490       .  S
C114        C130   1.484       .  S
C115        C116   1.406       .  A
C115        C120   1.403       .  A
C115        H122   1.082       .  S
C116        C117   1.417       .  A
C117        C118   1.403       .  A
C117        N124   1.434       .  S
C118        C119   1.406       .  A
C118        H123   1.083       .  S
C119        C120   1.417       .  A
C120        N121   1.435       .  S
N121        O125   1.263       .  A
N121        O126   1.262       .  A
N124        O127   1.263       .  A
N124        O128   1.263       .  A
C129        C130   1.405       .  A
C129        C134   1.403       .  A
C129        H136   1.083       .  S
C130        C131   1.416       .  A
C131        C132   1.403       .  A
C131        N138   1.437       .  S
C132        C133   1.405       .  A
C132        H137   1.083       .  S
C133        C134   1.415       .  A
C134        N135   1.437       .  S
N135        O139   1.263       .  A
N135        O140   1.263       .  A
N138        O141   1.262       .  A
N138        O142   1.263       .  A
C143        C144   1.409       .  A
C143        C148   1.409       .  A
C143        H150   1.082       .  S
C144        C145   1.415       .  A
C145        C146   1.394       .  A
C145        N152   1.433       .  S
C146        C147   1.398       .  A
C146        H151   1.084       .  S
C147        C148   1.415       .  A
C148        N149   1.438       .  S
N149        O153   1.263       .  A
N149        O154   1.262       .  A
N152        O155   1.261       .  A
N152        O156   1.262   1_455  A
C157        C158   1.406       .  A
C157        C162   1.397       .  A
C157        H164   1.085       .  S
C158        C159   1.421       .  A
C159        C160   1.408       .  A
C159        N166   1.437       .  S
C160        C161   1.403       .  A
C160        H165   1.084       .  S
C161        C162   1.410       .  A
C162        N163   1.441       .  S
N163        O167   1.263       .  A
N163        O168   1.263       .  A
N166        O169   1.260       .  A
N166        O170   1.263       .  A
C171        C172   1.404       .  A
C171        C176   1.410       .  A
C171        H178   1.084       .  S
C172        C173   1.410       .  A
C173        C174   1.396       .  A
C173        N180   1.440       .  S
C174        C175   1.407       .  A
C174        H179   1.084       .  S
C175        C176   1.421       .  A
C176        N177   1.437       .  S
N177        O181   1.260       .  A
N177        O182   1.263       .  A
N180        O183   1.263       .  A
N180        O184   1.263       .  A
C185        C186   1.409       .  A
C185        C190   1.411       .  A
C185        H192   1.082       .  S
C186        C187   1.414       .  A
C187        C188   1.392       .  A
C187        N194   1.431       .  S
C188        C189   1.397       .  A
C188        H193   1.084       .  S
C189        C190   1.416       .  A
C190        N191   1.440       .  S
N191        O195   1.263       .  A
N191        O196   1.262       .  A
N194        O197   1.261       .  A
N194        O198   1.262   1_655  A
C199        C200   1.401       .  A
C199        C204   1.405       .  A
C199        H206   1.085       .  S
C200        C201   1.417       .  A
C201        C202   1.406       .  A
C201        N208   1.444       .  S
C202        C203   1.401       .  A
C202        H207   1.085       .  S
C203        C204   1.415       .  A
C204        N205   1.442       .  S
N205        O209   1.263       .  A
N205        O210   1.262       .  A
N208        O211   1.262       .  A
N208        O212   1.263       .  A
C213        C214   1.403       .  A
C213        C218   1.405       .  A
C213        H220   1.084       .  S
C214        C215   1.415       .  A
C215        C216   1.405       .  A
C215        N222   1.441       .  S
C216        C217   1.403       .  A
C216        H221   1.084       .  S
C217        C218   1.415       .  A
C218        N219   1.441       .  S
N219        O223   1.263       .  A
N219        O224   1.263       .  A
N222        O225   1.263       .  A
N222        O226   1.263       .  A
C227        C228   1.399       .  A
C227        C232   1.395       .  A
C227        H234   1.084       .  S
C228        C229   1.415       .  A
C229        C230   1.409       .  A
C229        N236   1.438       .  S
C230        C231   1.407       .  A
C230        H235   1.081       .  S
C231        C232   1.415       .  A
C232        N233   1.436       .  S
N233        O237   1.263   1_545  A
N233        O238   1.261   1_545  A
N236        O239   1.262       .  A
N236        O240   1.263       .  A
C241        C242   1.398       .  A
C241        C246   1.397       .  A
C241        H248   1.084       .  S
C242        C243   1.417       .  A
C243        C244   1.410       .  A
C243        N250   1.443       .  S
C244        C245   1.404       .  A
C244        H249   1.082       .  S
C245        C246   1.414       .  A
C246        N247   1.437       .  S
N247        O251   1.263       .  A
N247        O252   1.261       .  A
N250        O253   1.262       .  A
N250        O254   1.263       .  A
C255        C256   1.399       .  A
C255        C260   1.395       .  A
C255        H262   1.084       .  S
C256        C257   1.416       .  A
C257        C258   1.409       .  A
C257        N264   1.437       .  S
C258        C259   1.407       .  A
C258        H263   1.081       .  S
C259        C260   1.415       .  A
C260        N261   1.436       .  S
N261        O265   1.263   1_565  A
N261        O266   1.261   1_565  A
N264        O267   1.262       .  A
N264        O268   1.263       .  A
C269        C270   1.404       .  A
C269        C274   1.411       .  A
C269        H276   1.082       .  S
C270        C271   1.414       .  A
C271        C272   1.397       .  A
C271        N278   1.437       .  S
C272        C273   1.398       .  A
C272        H277   1.084       .  S
C273        C274   1.418       .  A
C274        N275   1.443       .  S
N275        O279   1.263       .  A
N275        O280   1.262       .  A
N278        O281   1.263       .  A
N278        O282   1.260       .  A
C283        C527   1.492   1_565  S
C283        C552   1.492       .  S
C284        C513   1.499       .  S
C284        C541   1.500   1_545  S
N285        N286   1.321       .  A
N285        C289   1.348       .  A
N285       Cu293   2.079       .  S
N286        C287   1.341       .  A
N286       Cu292   2.059       .  S
C287        C288   1.379       .  A
C287        H290   1.082       .  S
C288        C289   1.385       .  A
C288        C524   1.471       .  S
C289        H291   1.082       .  S
Cu292       N295   2.059       .  S
Cu293       N303   2.081       .  S
Cu294       N296   2.076       .  S
Cu294       N302   2.078       .  S
N295        N296   1.321       .  A
N295        C299   1.339       .  A
N296        C297   1.349       .  A
C297        C298   1.386       .  A
C297        H300   1.082       .  S
C298        C299   1.381       .  A
C298        C510   1.476       .  S
C299        H301   1.083       .  S
N302        N303   1.325       .  A
N302        C306   1.345       .  A
N303        C304   1.346       .  A
C304        C305   1.383       .  A
C304        H307   1.081       .  S
C305        C306   1.381       .  A
C305        C496   1.476       .  S
C306        H308   1.081       .  S
N309        N310   1.321       .  A
N309        C313   1.347       .  A
N309       Cu317   2.076       .  S
N310        C311   1.342       .  A
N310       Cu316   2.063       .  S
C311        C312   1.381       .  A
C311        H314   1.082       .  S
C312        C313   1.385       .  A
C312        C555   1.473       .  S
C313        H315   1.082       .  S
Cu316       N319   2.063       .  S
Cu317       N327   2.078       .  S
Cu318       N320   2.078       .  S
Cu318       N326   2.080       .  S
N319        N320   1.321       .  A
N319        C323   1.339       .  A
N320        C321   1.349       .  A
C321        C322   1.387       .  A
C321        H324   1.082       .  S
C322        C323   1.382       .  A
C322        C538   1.479       .  S
C323        H325   1.083       .  S
N326        N327   1.325       .  A
N326        C330   1.346       .  A
N327        C328   1.345       .  A
C328        C329   1.381       .  A
C328        H331   1.081       .  S
C329        C330   1.381       .  A
C329        C482   1.473       .  S
C330        H332   1.081       .  S
C333        C440   1.500       .  S
C333        C468   1.501   1_455  S
C334        C426   1.502   1_655  S
C334        C457   1.502       .  S
N335        N336   1.321       .  A
N335        C339   1.348       .  A
N335       Cu343   2.074       .  S
N336        C337   1.341       .  A
N336       Cu342   2.063       .  S
C337        C338   1.382       .  A
C337        H340   1.083       .  S
C338        C339   1.385       .  A
C338        C443   1.477       .  S
C339        H341   1.082       .  S
Cu342       N345   2.063       .  S
Cu343       N353   2.076       .  S
Cu344       N346   2.076       .  S
Cu344       N352   2.078       .  S
N345        N346   1.321       .  A
N345        C349   1.340       .  A
N346        C347   1.349       .  A
C347        C348   1.385       .  A
C347        H350   1.082       .  S
C348        C349   1.381       .  A
C348        C429   1.475       .  S
C349        H351   1.083       .  S
N352        N353   1.323       .  A
N352        C356   1.345       .  A
N353        C354   1.344       .  A
C354        C355   1.385       .  A
C354        H357   1.081       .  S
C355        C356   1.386       .  A
C355        C415   1.485       .  S
C356        H358   1.081       .  S
N359        N360   1.321       .  A
N359        C363   1.349       .  A
N359       Cu367   2.077       .  S
N360        C361   1.340       .  A
N360       Cu366   2.063       .  S
C361        C362   1.381       .  A
C361        H364   1.083       .  S
C362        C363   1.385       .  A
C362        C471   1.474       .  S
C363        H365   1.082       .  S
Cu366       N369   2.064       .  S
Cu367       N377   2.079       .  S
Cu368       N370   2.077       .  S
Cu368       N376   2.079       .  S
N369        N370   1.321       .  A
N369        C373   1.341       .  A
N370        C371   1.349       .  A
C371        C372   1.385       .  A
C371        H374   1.082       .  S
C372        C373   1.382       .  A
C372        C454   1.477       .  S
C373        H375   1.083       .  S
N376        N377   1.322       .  A
N376        C380   1.344       .  A
N377        C378   1.345       .  A
C378        C379   1.389       .  A
C378        H381   1.080       .  S
C379        C380   1.388       .  A
C379        C398   1.492       .  S
C380        H382   1.081       .  S
O383       Cu391   2.012       .  S
O383        C393   1.278       .  A
O384       Cu391   2.010       .  S
O384        C394   1.277       .  A
O385       Cu391   2.012       .  S
O385        C395   1.278       .  A
O386       Cu391   2.005       .  S
O386        C396   1.278       .  A
O387       Cu392   2.012       .  S
O387        C396   1.278       .  A
O388       Cu392   2.009       .  S
O388        C395   1.279       .  A
O389       Cu392   2.014       .  S
O389        C394   1.277       .  A
O390       Cu392   2.010       .  S
O390        C393   1.277       .  A
Cu391      Cu392   2.372       .  S
C393        C499   1.475       .  S
C394        C485   1.471       .  S
C395        C401   1.490       .  S
C396        C412   1.484       .  S
C397        C398   1.406       .  A
C397        C402   1.403       .  A
C397        H404   1.082       .  S
C398        C399   1.417       .  A
C399        C400   1.403       .  A
C399        N406   1.434       .  S
C400        C401   1.406       .  A
C400        H405   1.083       .  S
C401        C402   1.417       .  A
C402        N403   1.435       .  S
N403        O407   1.263       .  A
N403        O408   1.262       .  A
N406        O409   1.263       .  A
N406        O410   1.263       .  A
C411        C412   1.405       .  A
C411        C416   1.403       .  A
C411        H418   1.083       .  S
C412        C413   1.416       .  A
C413        C414   1.403       .  A
C413        N420   1.437       .  S
C414        C415   1.405       .  A
C414        H419   1.083       .  S
C415        C416   1.415       .  A
C416        N417   1.437       .  S
N417        O421   1.263       .  A
N417        O422   1.263       .  A
N420        O423   1.262       .  A
N420        O424   1.263       .  A
C425        C426   1.409       .  A
C425        C430   1.409       .  A
C425        H432   1.082       .  S
C426        C427   1.415       .  A
C427        C428   1.394       .  A
C427        N434   1.433       .  S
C428        C429   1.398       .  A
C428        H433   1.084       .  S
C429        C430   1.415       .  A
C430        N431   1.438       .  S
N431        O435   1.263       .  A
N431        O436   1.262       .  A
N434        O437   1.261       .  A
N434        O438   1.262   1_455  A
C439        C440   1.406       .  A
C439        C444   1.397       .  A
C439        H446   1.085       .  S
C440        C441   1.421       .  A
C441        C442   1.408       .  A
C441        N448   1.437       .  S
C442        C443   1.403       .  A
C442        H447   1.084       .  S
C443        C444   1.410       .  A
C444        N445   1.441       .  S
N445        O449   1.263       .  A
N445        O450   1.263       .  A
N448        O451   1.260       .  A
N448        O452   1.263       .  A
C453        C454   1.404       .  A
C453        C458   1.410       .  A
C453        H460   1.084       .  S
C454        C455   1.410       .  A
C455        C456   1.396       .  A
C455        N462   1.440       .  S
C456        C457   1.407       .  A
C456        H461   1.084       .  S
C457        C458   1.421       .  A
C458        N459   1.437       .  S
N459        O463   1.260       .  A
N459        O464   1.263       .  A
N462        O465   1.263       .  A
N462        O466   1.263       .  A
C467        C468   1.409       .  A
C467        C472   1.411       .  A
C467        H474   1.082       .  S
C468        C469   1.414       .  A
C469        C470   1.392       .  A
C469        N476   1.431       .  S
C470        C471   1.397       .  A
C470        H475   1.084       .  S
C471        C472   1.416       .  A
C472        N473   1.440       .  S
N473        O477   1.263       .  A
N473        O478   1.262       .  A
N476        O479   1.261       .  A
N476        O480   1.262   1_655  A
C481        C482   1.401       .  A
C481        C486   1.405       .  A
C481        H488   1.085       .  S
C482        C483   1.417       .  A
C483        C484   1.406       .  A
C483        N490   1.444       .  S
C484        C485   1.401       .  A
C484        H489   1.085       .  S
C485        C486   1.415       .  A
C486        N487   1.442       .  S
N487        O491   1.263       .  A
N487        O492   1.262       .  A
N490        O493   1.262       .  A
N490        O494   1.263       .  A
C495        C496   1.403       .  A
C495        C500   1.405       .  A
C495        H502   1.084       .  S
C496        C497   1.415       .  A
C497        C498   1.405       .  A
C497        N504   1.441       .  S
C498        C499   1.403       .  A
C498        H503   1.084       .  S
C499        C500   1.415       .  A
C500        N501   1.441       .  S
N501        O505   1.263       .  A
N501        O506   1.263       .  A
N504        O507   1.263       .  A
N504        O508   1.263       .  A
C509        C510   1.399       .  A
C509        C514   1.395       .  A
C509        H516   1.084       .  S
C510        C511   1.415       .  A
C511        C512   1.409       .  A
C511        N518   1.438       .  S
C512        C513   1.407       .  A
C512        H517   1.081       .  S
C513        C514   1.415       .  A
C514        N515   1.436       .  S
N515        O519   1.263   1_545  A
N515        O520   1.261   1_545  A
N518        O521   1.262       .  A
N518        O522   1.263       .  A
C523        C524   1.398       .  A
C523        C528   1.397       .  A
C523        H530   1.084       .  S
C524        C525   1.417       .  A
C525        C526   1.410       .  A
C525        N532   1.443       .  S
C526        C527   1.404       .  A
C526        H531   1.082       .  S
C527        C528   1.414       .  A
C528        N529   1.437       .  S
N529        O533   1.263       .  A
N529        O534   1.261       .  A
N532        O535   1.262       .  A
N532        O536   1.263       .  A
C537        C538   1.399       .  A
C537        C542   1.395       .  A
C537        H544   1.084       .  S
C538        C539   1.416       .  A
C539        C540   1.409       .  A
C539        N546   1.437       .  S
C540        C541   1.407       .  A
C540        H545   1.081       .  S
C541        C542   1.415       .  A
C542        N543   1.436       .  S
N543        O547   1.263   1_565  A
N543        O548   1.261   1_565  A
N546        O549   1.262       .  A
N546        O550   1.263       .  A
C551        C552   1.404       .  A
C551        C556   1.411       .  A
C551        H558   1.082       .  S
C552        C553   1.414       .  A
C553        C554   1.397       .  A
C553        N560   1.437       .  S
C554        C555   1.398       .  A
C554        H559   1.084       .  S
C555        C556   1.418       .  A
C556        N557   1.443       .  S
N557        O561   1.263       .  A
N557        O562   1.262       .  A
N560        O563   1.263       .  A
N560        O564   1.260       .  A
