geometry optimzed in LAMMPS
_audit_creation_date              2020-11-30 
_audit_creation_method            'lammps2cif' 
_symmetry_space_group_name_H-M    'P1' 
_symmetry_Int_Tables_number       1 
_symmetry_cell_setting            triclinic 
loop_ 
_symmetry_equiv_pos_as_xyz 
  x,y,z 
_cell_length_a                    35.25351728 
_cell_length_b                    35.24487571111862 
_cell_length_c                    34.94785533468638 
_cell_angle_alpha                 90.36869228365977 
_cell_angle_beta                  88.45696364952133 
_cell_angle_gamma                 92.18692396011598 
loop_ 
_atom_site_label 
_atom_site_type_symbol 
_atom_site_fract_x 
_atom_site_fract_y 
_atom_site_fract_z 
_atom_site_charge 
N1          N  0.03830677  0.46589919  0.04265954    -0.35700
N2          N  0.03780509  0.54846157  0.03660835    -0.56200
N3          N  0.03277729  0.54227600  0.95304507    -0.35700
N4          N  0.03797943  0.45974997  0.95927556    -0.56200
C5          C  0.04702667  0.47608518  0.07898043     0.27900
C6          C  0.04764391  0.42916512  0.03772279     0.27900
C7          C  0.04054817  0.58008819  0.95722182     0.27900
C8          C  0.04116822  0.53302375  0.91605300     0.27900
C9          C  0.03453898  0.54529150  0.07520115     0.36500
C10         C  0.03246952  0.58536493  0.02834817     0.36500
C11         C  0.03544395  0.42226350  0.96787746     0.36500
C12         C  0.03408338  0.46230891  0.92093383     0.36500
C13         C  0.06194372  0.44537215  0.09723748    -0.21000
C14         C  0.06198887  0.41579362  0.07143193    -0.21000
C15         C  0.05338297  0.59498518  0.92238994    -0.20900
C16         C  0.05376783  0.56544194  0.89654711    -0.20900
C17         C  0.02686507  0.58032813  0.09138765    -0.22000
C18         C  0.02566575  0.60563360  0.06180921    -0.22000
C19         C  0.03008998  0.40103430  0.93478493    -0.22000
C20         C  0.02907151  0.42630932  0.90520138    -0.22000
C21         C  0.04118943  0.51206089  0.09637693    -0.17400
C22         C  0.04190011  0.40672194  0.00437311    -0.17400
C23         C  0.03817471  0.49617611  0.89927470    -0.17400
C24         C  0.03642578  0.60176353  0.99144135    -0.17400
H25         H  0.07206335  0.44421843  0.12613561     0.15600
H26         H  0.07167564  0.38763856  0.07698583     0.15600
H27         H  0.06242663  0.62404199  0.91625626     0.15600
H28         H  0.06317049  0.56761412  0.86689624     0.15600
H29         H  0.02304592  0.58718998  0.12144507     0.13800
H30         H  0.02079049  0.63566539  0.06470781     0.13800
H31         H  0.02822460  0.37045741  0.93185962     0.13800
H32         H  0.02584276  0.41888492  0.87533428     0.13800
H33         H  0.02345054  0.48186352  0.02366748     0.27100
H34         H  0.01990841  0.52443626  0.97351458     0.27100
N35         N  0.02606070  0.46401201  0.54287357    -0.35700
N36         N  0.01973507  0.45665106  0.45955674    -0.56200
N37         N  0.02561665  0.53908400  0.45219637    -0.35700
N38         N  0.02501050  0.54603364  0.53583228    -0.56200
C39         C  0.01599486  0.42672967  0.53912835     0.27900
C40         C  0.01858167  0.47404578  0.57978290     0.27900
C41         C  0.01569943  0.52877653  0.41629044     0.27900
C42         C  0.01777872  0.57615964  0.45686150     0.27900
C43         C  0.02661534  0.42030709  0.46875515     0.36500
C44         C  0.02689788  0.45984892  0.42141111     0.36500
C45         C  0.03274530  0.54334534  0.57346562     0.36500
C46         C  0.03260082  0.58268476  0.52595781     0.36500
C47         C  0.00228016  0.41284008  0.57406021    -0.21000
C48         C  0.00361822  0.44268327  0.59958347    -0.21000
C49         C  0.00133522  0.55972093  0.39794774    -0.20900
C50         C  0.00289827  0.58965797  0.42343474    -0.20900
C51         C  0.03838296  0.40055213  0.43641729    -0.22000
C52         C  0.03838789  0.42550591  0.40645219    -0.22000
C53         C  0.04542878  0.57831832  0.58741004    -0.22000
C54         C  0.04564073  0.60312089  0.55731491    -0.22000
C55         C  0.02076066  0.40435208  0.50566612    -0.17400
C56         C  0.02586117  0.51051859  0.59612846    -0.17400
C57         C  0.02520998  0.59852513  0.48984325    -0.17400
C58         C  0.02089010  0.49255730  0.39940733    -0.17400
H59         H  0.99205228  0.38417968  0.58047699     0.15600
H60         H  0.99428656  0.44126876  0.62928667     0.15600
H61         H  0.99071262  0.56075605  0.36922966     0.15600
H62         H  0.99387324  0.61809223  0.41799533     0.15600
H63         H  0.04633311  0.37124660  0.43450150     0.13800
H64         H  0.04615576  0.41910633  0.37700491     0.13800
H65         H  0.05362228  0.58529245  0.61631223     0.13800
H66         H  0.05414231  0.63291159  0.55859845     0.13800
H67         H  0.04070658  0.48057052  0.52236561     0.27100
H68         H  0.04046599  0.52282627  0.47104465     0.27100
O69         O  0.99301368  0.02529150  0.90243628    -0.77600
C70         C  0.89574846  0.00069878  0.98050619     0.83500
O71         O  0.02321133  0.09312608  0.01628543    -0.78700
O72         O  0.96754082  0.97394902  0.07393919    -0.80200
O73         O  0.02806444  0.91225005  0.96498332    -0.80000
O74         O  0.04128938  0.98605361  0.90433729    -0.78600
Zn75       Zn  0.97451882  0.03349992  0.95628305     1.55700
O76         O  0.97553792  0.90938617  0.00212389    -0.80000
Cd77       Cd  0.04140768  0.97063223  0.96153596     1.59700
Cd78       Cd  0.02969434  0.03554718  0.02673979     1.59600
O79         O  0.09585595  0.98003022  0.98358978    -0.80000
O80         O  0.00244205  0.00145719  0.98962010    -1.90500
Cd81       Cd  0.96479250  0.96564345  0.01589269     1.59900
O82         O  0.08708576  0.02523131  0.02753733    -0.79900
O83         O  0.90894435  0.97650283  0.00306544    -0.78600
C84         C  0.00266401  0.10895879  0.99201275     0.84000
C85         C  0.01956250  0.00718165  0.88596790     0.83600
O86         O  0.91761037  0.02285309  0.96055512    -0.77500
C87         C  0.00118339  0.89323012  0.98213413     0.84400
O88         O  0.98304755  0.08940907  0.96840762    -0.77600
C89         C  0.10851387  0.00247123  0.00957899     0.84600
C90         C  0.98480426  0.99867950  0.09445739     0.84900
O91         O  0.00802405  0.02388089  0.08053549    -0.80000
O92         O  0.96689812  0.01437409  0.40281743    -0.77600
C93         C  0.87380361  0.00015201  0.48897597     0.83500
O94         O  0.00718196  0.09146645  0.50723143    -0.78700
O95         O  0.95495127  0.98848439  0.58344598    -0.80200
O96         O  0.99791802  0.90577054  0.48120040    -0.80000
O97         O  0.00602421  0.96632225  0.40683323    -0.78600
Zn98       Zn  0.95180540  0.02850286  0.45691701     1.55700
O99         O  0.95219966  0.91197384  0.52579768    -0.80000
Cd100      Cd  0.01158162  0.96096031  0.46470550     1.59700
Cd101      Cd  0.01607430  0.03476587  0.52016312     1.59600
O102        O  0.06856935  0.97002058  0.47407408    -0.80000
O103        O  0.98033874  0.99912075  0.49228068    -1.90500
Cd104      Cd  0.94416486  0.97054196  0.52807140     1.59900
O105        O  0.07297480  0.02296843  0.50908401    -0.79900
O106        O  0.88762818  0.98032189  0.51532879    -0.78600
C107        C  0.98419292  0.10599299  0.48437562     0.84000
C108        C  0.98805288  0.98969003  0.38731146     0.83600
O109        O  0.89511209  0.01876201  0.46511099    -0.77500
C110        C  0.97452704  0.89141514  0.50602533     0.84400
O111        O  0.96217611  0.08524259  0.46398004    -0.77600
C112        C  0.08827089  0.99561598  0.49107290     0.84600
C113        C  0.98056070  0.01014866  0.59812634     0.84900
O114        O  0.00576487  0.02836407  0.57799017    -0.80000
N115        N  0.54132808  0.98659107  0.06213796    -0.35700
N116        N  0.54370440  0.98678447  0.97779768    -0.56200
N117        N  0.46126239  0.98005400  0.97963210    -0.35700
N118        N  0.45866318  0.98569219  0.06420582    -0.56200
C119        C  0.57871948  0.99428281  0.05475260     0.27900
C120        C  0.53446417  0.99416554  0.09973523     0.27900
C121        C  0.46787225  0.98508265  0.94144121     0.27900
C122        C  0.42345456  0.98265497  0.98656258     0.27900
C123        C  0.58074697  0.98110360  0.98426988     0.36500
C124        C  0.53814217  0.97846779  0.94039638     0.36500
C125        C  0.46451758  0.98048618  0.10202147     0.36500
C126        C  0.42182671  0.97552112  0.05812958     0.36500
C127        C  0.59574767  0.00716671  0.08800676    -0.21000
C128        C  0.56789376  0.00708702  0.11630640    -0.21000
C129        C  0.43371835  0.99085413  0.92400163    -0.20900
C130        C  0.40584542  0.98942098  0.95233225    -0.20900
C131        C  0.59884344  0.96958781  0.95065289    -0.22000
C132        C  0.57202673  0.96837523  0.92284672    -0.22000
C133        C  0.43105630  0.96765682  0.12011111    -0.22000
C134        C  0.40412219  0.96446018  0.09240431    -0.22000
C135        C  0.59868129  0.98723648  0.01981269    -0.17400
C136        C  0.49975002  0.98683555  0.12032805    -0.17400
C137        C  0.40383793  0.97618872  0.02218672    -0.17400
C138        C  0.50320803  0.98084446  0.92153801    -0.17400
H139        H  0.62537186  0.01522313  0.09169077     0.15600
H140        H  0.57195461  0.01506306  0.14591865     0.15600
H141        H  0.42897753  0.99474471  0.89385839     0.15600
H142        H  0.37580729  0.99232796  0.94800018     0.15600
H143        H  0.62824906  0.96249706  0.94643757     0.13800
H144        H  0.57690537  0.96048265  0.89319267     0.13800
H145        H  0.42657705  0.96051437  0.14999126     0.13800
H146        H  0.37498073  0.95443780  0.09700319     0.13800
H147        H  0.52293154  0.97214536  0.04391008     0.27100
H148        H  0.48033525  0.97059347  0.99900854     0.27100
N149        N  0.51875661  0.99735435  0.56391373    -0.35700
N150        N  0.52140254  0.00016136  0.48005294    -0.56200
N151        N  0.44043300  0.01287900  0.48033861    -0.35700
N152        N  0.43879127  0.01494952  0.56401943    -0.56200
C153        C  0.55672947  0.99858327  0.55661320     0.27900
C154        C  0.51317587  0.00769664  0.60106584     0.27900
C155        C  0.45040581  0.02200963  0.44367156     0.27900
C156        C  0.40585755  0.02715449  0.48790721     0.27900
C157        C  0.55626707  0.98685580  0.48611280     0.36500
C158        C  0.51518925  0.99626611  0.44207090     0.36500
C159        C  0.44262149  0.00819635  0.60181681     0.36500
C160        C  0.40101990  0.01412085  0.55780510     0.36500
C161        C  0.57545373  0.00961668  0.58950271    -0.21000
C162        C  0.54803715  0.01571251  0.61737621    -0.21000
C163        C  0.42167339  0.04217079  0.42784773    -0.20900
C164        C  0.39365549  0.04545069  0.45574030    -0.20900
C165        C  0.57211024  0.97417971  0.45185578    -0.22000
C166        C  0.54641312  0.98063550  0.42395775    -0.22000
C167        C  0.40719950  0.00317040  0.61960392    -0.22000
C168        C  0.38088489  0.00671609  0.59174855    -0.22000
C169        C  0.57510036  0.98876272  0.52153394    -0.17400
C170        C  0.47753089  0.00849734  0.62094798    -0.17400
C171        C  0.38439259  0.02258112  0.52258337    -0.17400
C172        C  0.48332419  0.01013362  0.42334544    -0.17400
H173        H  0.60578703  0.01327959  0.59301175     0.15600
H174        H  0.55336855  0.02505324  0.64635155     0.15600
H175        H  0.42065857  0.05306624  0.39903143     0.15600
H176        H  0.36726062  0.05968525  0.45261057     0.15600
H177        H  0.59965657  0.96219151  0.44717424     0.13800
H178        H  0.55070745  0.97487211  0.39376846     0.13800
H179        H  0.40092700  0.99746294  0.64954739     0.13800
H180        H  0.35038347  0.00440797  0.59615653     0.13800
H181        H  0.49823140  0.98635422  0.54572797     0.27100
H182        H  0.45426809  0.99444012  0.49778622     0.27100
C183        C  0.49679120  0.99861180  0.81127640     0.19600
C184        C  0.48550256  0.02932747  0.78930385    -0.18500
C185        C  0.48444360  0.02694797  0.74925027    -0.10700
C186        C  0.49465513  0.99355530  0.72986533     0.21900
C187        C  0.50653873  0.96303725  0.75167318    -0.20100
C188        C  0.50755490  0.96538009  0.79175932    -0.10900
C189        C  0.49505498  0.98999263  0.68713103    -0.15100
C190        C  0.47614175  0.01257197  0.66373398    -0.28900
C191        C  0.49704513  0.00294172  0.85409689    -0.03200
C192        C  0.50345804  0.97485335  0.87899033    -0.39700
H193        H  0.47748169  0.05548782  0.80321923     0.13000
H194        H  0.47630624  0.05165808  0.73372877     0.12700
H195        H  0.51510521  0.93713284  0.73760078     0.12100
H196        H  0.51711375  0.94109534  0.80694357     0.12300
H197        H  0.51115350  0.96726927  0.67427744     0.15100
H198        H  0.45722164  0.03329063  0.67587706     0.13900
H199        H  0.49097037  0.03071066  0.86597097     0.11500
H200        H  0.51020210  0.94678183  0.86879095     0.13500
C201        C  0.48474044  0.99870446  0.23133263     0.19600
C202        C  0.47182800  0.02802135  0.25525287    -0.18500
C203        C  0.47249807  0.02505135  0.29528979    -0.10700
C204        C  0.48604229  0.99241797  0.31266691     0.21900
C205        C  0.49843141  0.96284748  0.28878033    -0.20100
C206        C  0.49794236  0.96589919  0.24873033    -0.10900
C207        C  0.48609328  0.98734875  0.35526957    -0.15100
C208        C  0.48533395  0.01619171  0.38089292    -0.28900
C209        C  0.48222927  0.00272700  0.18870499    -0.03200
C210        C  0.50204426  0.98211344  0.16290566    -0.39700
H211        H  0.46093701  0.05338118  0.24288429     0.13000
H212        H  0.46148678  0.04805331  0.31234252     0.12700
H213        H  0.50846039  0.93710899  0.30118680     0.12100
H214        H  0.50709170  0.94206225  0.23168606     0.12300
H215        H  0.48727542  0.95858022  0.36608148     0.15100
H216        H  0.48440158  0.04524184  0.37108367     0.13900
H217        H  0.46400309  0.02424468  0.17802171     0.11500
H218        H  0.52294972  0.96287574  0.17276032     0.13500
C219        C  0.19658425  0.01503369  0.50352299     0.19600
C220        C  0.21896378  0.04507151  0.51868710    -0.18500
C221        C  0.25868395  0.04428087  0.51731662    -0.10700
C222        C  0.27706196  0.01317272  0.50080783     0.21900
C223        C  0.25481866  0.98333974  0.48531952    -0.20100
C224        C  0.21516439  0.98397726  0.48688006    -0.10900
C225        C  0.31917524  0.01077389  0.49875437    -0.15100
C226        C  0.34272227  0.02906854  0.52302282    -0.28900
C227        C  0.15430501  0.01749386  0.50579425    -0.03200
C228        C  0.12997598  0.99253901  0.48904805    -0.39700
H229        H  0.20565462  0.06945582  0.53149619     0.13000
H230        H  0.27477312  0.06833850  0.52867794     0.12700
H231        H  0.26820850  0.95907056  0.47235566     0.12100
H232        H  0.19970169  0.95978986  0.47516499     0.12300
H233        H  0.33122895  0.99117691  0.47801672     0.15100
H234        H  0.33111978  0.04619916  0.54609615     0.13900
H235        H  0.14271434  0.04129673  0.52153148     0.11500
H236        H  0.14035491  0.96880159  0.47259609     0.13500
C237        C  0.76445729  0.98686694  0.50486742     0.19600
C238        C  0.73941314  0.95671912  0.51609931    -0.18500
C239        C  0.69991961  0.96039367  0.51524292    -0.10700
C240        C  0.68457851  0.99460077  0.50345313     0.21900
C241        C  0.70960425  0.02470653  0.49239073    -0.20100
C242        C  0.74897151  0.02108879  0.49333648    -0.10900
C243        C  0.64289375  0.99985238  0.50122502    -0.15100
C244        C  0.61642409  0.98057838  0.52270168    -0.28900
C245        C  0.80636847  0.98231711  0.50692161    -0.03200
C246        C  0.83211409  0.00301862  0.48580146    -0.39700
H247        H  0.75045842  0.93008097  0.52523673     0.13000
H248        H  0.68159942  0.93624524  0.52321204     0.12700
H249        H  0.69861584  0.05141826  0.48338453     0.12100
H250        H  0.76704844  0.04548772  0.48568845     0.12300
H251        H  0.63361101  0.02197157  0.48247349     0.15100
H252        H  0.62518799  0.96102929  0.54435215     0.13900
H253        H  0.81627109  0.96074844  0.52594022     0.11500
H254        H  0.82254861  0.02296929  0.46494956     0.13500
C255        C  0.21512608  0.97940742  0.01545815     0.19600
C256        C  0.24166163  0.96560165  0.98872892    -0.18500
C257        C  0.28053309  0.96752804  0.99599216    -0.10700
C258        C  0.29396384  0.98267332  0.03073288     0.21900
C259        C  0.26731245  0.99554759  0.05800434    -0.20100
C260        C  0.22832515  0.99376362  0.05062953    -0.10900
C261        C  0.33546100  0.98771315  0.03812658    -0.15100
C262        C  0.36214676  0.96718606  0.02011251    -0.28900
C263        C  0.17417911  0.97842751  0.00537947    -0.03200
C264        C  0.14900404  0.00269793  0.02018455    -0.39700
H265        H  0.23237020  0.95430241  0.96149703     0.13000
H266        H  0.29987397  0.95829735  0.97360496     0.12700
H267        H  0.27671490  0.00723801  0.08503878     0.12100
H268        H  0.20872688  0.00356073  0.07255621     0.12300
H269        H  0.34443699  0.00970391  0.05824194     0.15100
H270        H  0.35369488  0.94492674  0.00018831     0.13900
H271        H  0.16492296  0.95827375  0.98356179     0.11500
H272        H  0.15820754  0.02399601  0.04085083     0.13500
C273        C  0.78703877  0.99461706  0.00200161     0.19600
C274        C  0.76471554  0.98846898  0.03548249    -0.18500
C275        C  0.72531140  0.99230204  0.03542733    -0.10700
C276        C  0.70725149  0.00206283  0.00163386     0.21900
C277        C  0.72955556  0.00900058  0.96841495    -0.20100
C278        C  0.76890057  0.00497831  0.96839259    -0.10900
C279        C  0.66537708  0.00522126  0.99989156    -0.15100
C280        C  0.64069787  0.98441510  0.02192816    -0.28900
C281        C  0.82881596  0.98918604  0.00316401    -0.03200
C282        C  0.85420313  0.00426010  0.97740392    -0.39700
H283        H  0.77784165  0.98076951  0.06186545     0.13000
H284        H  0.70920835  0.98793351  0.06193368     0.12700
H285        H  0.71633907  0.01664622  0.94206157     0.12100
H286        H  0.78465985  0.00919977  0.94171805     0.12300
H287        H  0.65439037  0.02381200  0.97846346     0.15100
H288        H  0.65113061  0.96555058  0.04335593     0.13900
H289        H  0.83923883  0.97360648  0.02722729     0.11500
H290        H  0.84480626  0.02206057  0.95460314     0.13500
C291        C  0.00902604  0.03460076  0.70048309     0.19600
C292        C  0.04196967  0.02814165  0.72062898    -0.18500
C293        C  0.04079788  0.02778248  0.76062405    -0.10700
C294        C  0.00663855  0.03440386  0.78094085     0.21900
C295        C  0.97447852  0.04350769  0.76064129    -0.20100
C296        C  0.97556203  0.04342934  0.72075032    -0.10900
C297        C  0.00321817  0.03197416  0.82313850    -0.15100
C298        C  0.02543633  0.01058848  0.84425884    -0.28900
C299        C  0.00967625  0.03116031  0.65839517    -0.03200
C300        C  0.98050085  0.01437457  0.63996438    -0.39700
H301        H  0.06825398  0.02210909  0.70541044     0.13000
H302        H  0.06656952  0.02226129  0.77539127     0.12700
H303        H  0.94810514  0.04959807  0.77567107     0.12100
H304        H  0.95013184  0.04986223  0.70573703     0.12300
H305        H  0.97994941  0.04657040  0.83707260     0.15100
H306        H  0.04766844  0.99428241  0.83080663     0.13900
H307        H  0.03535618  0.04035898  0.64262106     0.11500
H308        H  0.95616320  0.00250404  0.65615369     0.13500
C309        C  0.97959918  0.01044606  0.28091424     0.19600
C310        C  0.94900591  0.01369318  0.25659780    -0.18500
C311        C  0.95531897  0.01590336  0.21714738    -0.10700
C312        C  0.99247284  0.01543390  0.20162650     0.21900
C313        C  0.02318532  0.01348409  0.22596936    -0.20100
C314        C  0.01683459  0.01065675  0.26538944    -0.10900
C315        C  0.99978741  0.01695559  0.16010174    -0.15100
C316        C  0.97711326  0.99808970  0.13575561    -0.28900
C317        C  0.97214642  0.00880248  0.32251616    -0.03200
C318        C  0.99333272  0.98862917  0.34558177    -0.39700
H319        H  0.92020274  0.01417848  0.26815468     0.13000
H320        H  0.93124020  0.01839776  0.19885533     0.12700
H321        H  0.05201790  0.01354800  0.21440332     0.12100
H322        H  0.04104614  0.00937218  0.28367934     0.12300
H323        H  0.02561094  0.03170135  0.14958409     0.15100
H324        H  0.95301583  0.98076409  0.14646481     0.13900
H325        H  0.94820842  0.02398927  0.33430536     0.11500
H326        H  0.01558398  0.97124210  0.33363004     0.13500
C327        C  0.00386022  0.70490116  0.50610415     0.19600
C328        C  0.97307928  0.72378748  0.52267321    -0.18500
C329        C  0.97089613  0.76328803  0.51989748    -0.10700
C330        C  0.99991053  0.78496302  0.50081410     0.21900
C331        C  0.03126706  0.76607915  0.48532998    -0.20100
C332        C  0.03335908  0.72662067  0.48799872    -0.10900
C333        C  0.99855236  0.82688482  0.49522046    -0.15100
C334        C  0.97345590  0.84981152  0.51264325    -0.28900
C335        C  0.00461872  0.66280289  0.50921386    -0.03200
C336        C  0.02538411  0.64070486  0.48573533    -0.39700
H337        H  0.95021651  0.70780679  0.53726304     0.13000
H338        H  0.94609009  0.77630098  0.53214189     0.12700
H339        H  0.05431616  0.78195064  0.47091720     0.12100
H340        H  0.05829326  0.71342460  0.47615017     0.12300
H341        H  0.01999341  0.83966783  0.47588166     0.15100
H342        H  0.95238276  0.83851062  0.53308416     0.13900
H343        H  0.98643749  0.64916708  0.53110541     0.11500
H344        H  0.04095499  0.65307041  0.46137878     0.13500
C345        C  0.00159661  0.21484843  0.49918273     0.19600
C346        C  0.03194190  0.23763363  0.51283927    -0.18500
C347        C  0.03177895  0.27729312  0.51043603    -0.10700
C348        C  0.00086437  0.29531653  0.49469700     0.21900
C349        C  0.97022756  0.27261361  0.48160255    -0.20100
C350        C  0.97036855  0.23292858  0.48403855    -0.10900
C351        C  0.00032513  0.33737607  0.48995681    -0.15100
C352        C  0.02139765  0.36225802  0.51072465    -0.28900
C353        C  0.00351935  0.17260153  0.50181575    -0.03200
C354        C  0.98214373  0.14785507  0.48112943    -0.39700
H355        H  0.05630032  0.22465227  0.52481036     0.13000
H356        H  0.05640543  0.29351895  0.52004748     0.12700
H357        H  0.94597129  0.28565853  0.46949184     0.12100
H358        H  0.94577355  0.21676541  0.47430696     0.12300
H359        H  0.98126999  0.34839397  0.46912538     0.15100
H360        H  0.03781092  0.35206793  0.53410264     0.13900
H361        H  0.02419511  0.16145737  0.52088936     0.11500
H362        H  0.96238778  0.15823176  0.46076253     0.13500
C363        C  0.02774430  0.50410226  0.78821271     0.22400
C364        C  0.00166061  0.52114189  0.76456482    -0.18500
C365        C  0.00499879  0.51848694  0.72454117    -0.10700
C366        C  0.03480731  0.49873759  0.70687291     0.21900
C367        C  0.06068113  0.48138818  0.73043622    -0.20100
C368        C  0.05741416  0.48410454  0.77045704    -0.10900
C369        C  0.03899334  0.49411883  0.66432447    -0.15100
C370        C  0.02225420  0.51612077  0.63869272    -0.28900
C371        C  0.02291112  0.50838830  0.83085525    -0.03200
C372        C  0.04446718  0.49177850  0.85687250    -0.39700
H373        H  0.97834249  0.53651139  0.77713098     0.13000
H374        H  0.98366387  0.53136607  0.70777928     0.12700
H375        H  0.08375057  0.46571130  0.71779433     0.12100
H376        H  0.07845961  0.47054341  0.78694061     0.12300
H377        H  0.05710466  0.47194267  0.65355671     0.15100
H378        H  0.00678663  0.54044395  0.64867041     0.13900
H379        H  0.00017074  0.52590984  0.84153002     0.11500
H380        H  0.06618030  0.47254567  0.84773201     0.13500
C381        C  0.03128451  0.49796470  0.20729229     0.19600
C382        C  0.01082030  0.47196078  0.23101123    -0.18500
C383        C  0.01189709  0.47498487  0.27096995    -0.10700
C384        C  0.03370482  0.50428730  0.28849099     0.21900
C385        C  0.05464152  0.52991021  0.26476903    -0.20100
C386        C  0.05358062  0.52687419  0.22482328    -0.10900
C387        C  0.03551925  0.50963820  0.33097814    -0.15100
C388        C  0.01723007  0.48707410  0.35711965    -0.28900
C389        C  0.02804281  0.49380633  0.16479433    -0.03200
C390        C  0.04597125  0.51670886  0.13866997    -0.39700
H391        H  0.99358302  0.44921540  0.21855762     0.13000
H392        H  0.99528710  0.45430430  0.28753555     0.12700
H393        H  0.07186909  0.55266605  0.27721400     0.12100
H394        H  0.07022175  0.54753488  0.20826941     0.12300
H395        H  0.05321145  0.53323868  0.34137851     0.15100
H396        H  0.00081339  0.46221117  0.34807676     0.13900
H397        H  0.00954844  0.47084046  0.15435677     0.11500
H398        H  0.06344356  0.54081229  0.14778289     0.13500
C399        C  0.02389666  0.78760114  0.96293852     0.19600
C400        C  0.05733268  0.76717139  0.96416457    -0.18500
C401        C  0.05569295  0.72734556  0.96606577    -0.10700
C402        C  0.02051589  0.70707631  0.96587083     0.21900
C403        C  0.98730382  0.72737564  0.96255859    -0.20100
C404        C  0.98886684  0.76713597  0.96140194    -0.10900
C405        C  0.01760526  0.66482091  0.96771638    -0.15100
C406        C  0.04032428  0.64420193  0.98918840    -0.28900
C407        C  0.02632392  0.83005332  0.96339793    -0.03200
C408        C  0.99878790  0.85114891  0.97925714    -0.39700
H409        H  0.08475222  0.78210891  0.96454170     0.13000
H410        H  0.08191520  0.71243056  0.96730983     0.12700
H411        H  0.95993487  0.71240641  0.96152795     0.12100
H412        H  0.96259102  0.78172113  0.95899113     0.12300
H413        H  0.99477604  0.65024509  0.95252715     0.15100
H414        H  0.06090756  0.65868242  0.00730798     0.13900
H415        H  0.05239490  0.84415132  0.95267677     0.11500
H416        H  0.97381401  0.83703847  0.99230014     0.13500
C417        C  0.01908551  0.29746636  0.00637473     0.19600
C418        C  0.98664662  0.27479622  0.99793736    -0.18500
C419        C  0.98701341  0.23510625  0.99989731    -0.10700
C420        C  0.02000075  0.21693401  0.01041150     0.21900
C421        C  0.05213782  0.23948362  0.01977071    -0.20100
C422        C  0.05188422  0.27919116  0.01758256    -0.10900
C423        C  0.02163853  0.17473299  0.01264527    -0.15100
C424        C  0.00069640  0.15089447  0.99063822    -0.28900
C425        C  0.01695331  0.33972347  0.00336242    -0.03200
C426        C  0.04644363  0.36484038  0.00752153    -0.39700
H427        H  0.96078603  0.28786259  0.98971349     0.13000
H428        H  0.96123841  0.21883803  0.99369487     0.12700
H429        H  0.07778288  0.22627229  0.02839467     0.12100
H430        H  0.07746446  0.29507009  0.02494669     0.12300
H431        H  0.04203749  0.16303451  0.03166842     0.15100
H432        H  0.98180333  0.16237816  0.96999595     0.13900
H433        H  0.98956414  0.35096145  0.99688530     0.11500
H434        H  0.07429142  0.35548897  0.01453483     0.13500
loop_ 
_geom_bond_atom_site_label_1 
_geom_bond_atom_site_label_2 
_geom_bond_distance 
_geom_bond_site_symmetry_2 
_ccdc_geom_bond_type 
N1            C6   1.357       .  A
N1            C5   1.357       .  A
N1           H33   1.038       .  S
N2            C9   1.356       .  A
N2           C10   1.355       .  A
N3            C8   1.359       .  A
N3            C7   1.358       .  A
N3           H34   1.039       .  S
N4           C11   1.356       .  A
N4           C12   1.355       .  A
C5           C13   1.388       .  A
C5           C21   1.422       .  A
C6           C22   1.419       .  A
C6           C14   1.387       .  A
C7           C15   1.387       .  A
C7           C24   1.422       .  A
C8           C23   1.423       .  A
C8           C16   1.387       .  A
C9           C21   1.420       .  A
C9           C17   1.388       .  A
C10          C24   1.418   1_554  A
C10          C18   1.387       .  A
C11          C19   1.387       .  A
C11          C22   1.419   1_556  A
C12          C20   1.387       .  A
C12          C23   1.418       .  A
C13          C14   1.374       .  A
C13          H25   1.082       .  S
C14          H26   1.082       .  S
C15          C16   1.374       .  A
C15          H27   1.082       .  S
C16          H28   1.082       .  S
C17          C18   1.372       .  A
C17          H29   1.082       .  S
C18          H30   1.082       .  S
C19          C20   1.371       .  A
C19          H31   1.082       .  S
C20          H32   1.082       .  S
C21         C390   1.499       .  S
C22         C426   1.496       .  S
C23         C372   1.500       .  S
C24         C406   1.499       .  S
N35          C40   1.357       .  A
N35          C39   1.354       .  A
N35          H67   1.041       .  S
N36          C43   1.355       .  A
N36          C44   1.355       .  A
N37          C42   1.354       .  A
N37          C41   1.355       .  A
N37          H68   1.040       .  S
N38          C45   1.355       .  A
N38          C46   1.354       .  A
C39          C47   1.386       .  A
C39          C55   1.416       .  A
C40          C56   1.421       .  A
C40          C48   1.387       .  A
C41          C49   1.388       .  A
C41          C58   1.419       .  A
C42          C57   1.417       .  A
C42          C50   1.388       .  A
C43          C55   1.417       .  A
C43          C51   1.386       .  A
C44          C58   1.416       .  A
C44          C52   1.386       .  A
C45          C53   1.385       .  A
C45          C56   1.416       .  A
C46          C54   1.387       .  A
C46          C57   1.418       .  A
C47          C48   1.375       .  A
C47          H59   1.082   1_455  S
C48          H60   1.081   1_455  S
C49          C50   1.377       .  A
C49          H61   1.082   1_455  S
C50          H62   1.082   1_455  S
C51          C52   1.372       .  A
C51          H63   1.082       .  S
C52          H64   1.082       .  S
C53          C54   1.372       .  A
C53          H65   1.082       .  S
C54          H66   1.082       .  S
C55         C352   1.496       .  S
C56         C370   1.502       .  S
C57         C336   1.494       .  S
C58         C388   1.498       .  S
O69          C85   1.275   1_655  A
O69         Zn75   1.998       .  S
C70         C282   1.482       .  S
C70          O86   1.274       .  A
C70          O83   1.274   1_546  A
O71          C84   1.275   1_554  A
O71         Cd78   2.086       .  S
O72          C90   1.273       .  A
O72         Cd81   2.052       .  S
O73          C87   1.278       .  A
O73         Cd77   2.097       .  S
O74          C85   1.277   1_565  A
O74         Cd77   2.075       .  S
Zn75         O86   2.029       .  S
Zn75         O88   2.026       .  S
Zn75         O80   1.940   1_655  S
O76          C87   1.277   1_654  A
O76         Cd81   2.084       .  S
Cd77         O79   2.101       .  S
Cd77         O80   2.014   1_565  S
Cd78         O82   2.070       .  S
Cd78         O91   2.048       .  S
Cd78         O80   2.002   1_554  S
O79          C89   1.279   1_566  A
O80         Cd81   2.005   1_446  S
Cd81         O83   2.081       .  S
O82          C89   1.274       .  A
C84         C424   1.483       .  S
C84          O88   1.273   1_455  A
C85         C298   1.472       .  S
C87         C408   1.485   1_455  S
C89         C264   1.484       .  S
C90         C316   1.461       .  S
C90          O91   1.275   1_665  A
O92         C108   1.276   1_545  A
O92         Zn98   2.015       .  S
C93         C246   1.484       .  S
C93         O109   1.275       .  A
C93         O106   1.278   1_545  A
O94         C107   1.276   1_455  A
O94        Cd101   2.089       .  S
O95         C113   1.276   1_565  A
O95        Cd104   2.072       .  S
O96         C110   1.274       .  A
O96        Cd100   2.068   1_655  S
O97         C108   1.271   1_455  A
O97        Cd100   2.048       .  S
Zn98        O109   2.028       .  S
Zn98        O111   2.034       .  S
Zn98        O103   1.943   1_545  S
O99         C110   1.277       .  A
O99        Cd104   2.095       .  S
Cd100       O102   2.057       .  S
Cd100       O103   1.997   1_455  S
Cd101       O105   2.090       .  S
Cd101       O114   2.056       .  S
Cd101       O103   2.011   1_445  S
O102        C112   1.271       .  A
O103       Cd104   2.009       .  S
Cd104       O106   2.096       .  S
O105        C112   1.277   1_545  A
C107        C354   1.485       .  S
C107        O111   1.275       .  A
C108        C318   1.466       .  S
C110        C334   1.485       .  S
C112        C228   1.478       .  S
C113        C300   1.469       .  S
C113        O114   1.275   1_655  A
N115        C120   1.356       .  A
N115        C119   1.354       .  A
N115        H147   1.039       .  S
N116        C123   1.354       .  A
N116        C124   1.355       .  A
N117        C122   1.355       .  A
N117        C121   1.360       .  A
N117        H148   1.033       .  S
N118        C125   1.358       .  A
N118        C126   1.356       .  A
C119        C127   1.388   1_565  A
C119        C135   1.418       .  A
C120        C136   1.419       .  A
C120        C128   1.387   1_565  A
C121        C129   1.386       .  A
C121        C138   1.423       .  A
C122        C137   1.423   1_556  A
C122        C130   1.389       .  A
C123        C135   1.420   1_556  A
C123        C131   1.388       .  A
C124        C138   1.418       .  A
C124        C132   1.386       .  A
C125        C133   1.385       .  A
C125        C136   1.422       .  A
C126        C134   1.387       .  A
C126        C137   1.423       .  A
C127        C128   1.375       .  A
C127        H139   1.083       .  S
C128        H140   1.082       .  S
C129        C130   1.376       .  A
C129        H141   1.081       .  S
C130        H142   1.083       .  S
C131        C132   1.373       .  A
C131        H143   1.082       .  S
C132        H144   1.082       .  S
C133        C134   1.375       .  A
C133        H145   1.082       .  S
C134        H146   1.082       .  S
C135        C280   1.492       .  S
C136        C210   1.503       .  S
C137        C262   1.495       .  S
C138        C192   1.500       .  S
N149        C154   1.358   1_565  A
N149        C153   1.355       .  A
N149        H181   1.038       .  S
N150        C157   1.355   1_545  A
N150        C158   1.356   1_545  A
N151        C156   1.355       .  A
N151        C155   1.357       .  A
N151        H182   1.038   1_545  S
N152        C159   1.355       .  A
N152        C160   1.354       .  A
C153        C161   1.387   1_565  A
C153        C169   1.418       .  A
C154        C170   1.421       .  A
C154        C162   1.387       .  A
C155        C163   1.388       .  A
C155        C172   1.420       .  A
C156        C171   1.418       .  A
C156        C164   1.386       .  A
C157        C169   1.420       .  A
C157        C165   1.386       .  A
C158        C172   1.419   1_565  A
C158        C166   1.386       .  A
C159        C167   1.386       .  A
C159        C170   1.416       .  A
C160        C168   1.387       .  A
C160        C171   1.416       .  A
C161        C162   1.375       .  A
C161        H173   1.082       .  S
C162        H174   1.082       .  S
C163        C164   1.376       .  A
C163        H175   1.082       .  S
C164        H176   1.082       .  S
C165        C166   1.374       .  A
C165        H177   1.082       .  S
C166        H178   1.081       .  S
C167        C168   1.372       .  A
C167        H179   1.082   1_545  S
C168        H180   1.082       .  S
C169        C244   1.498       .  S
C170        C190   1.501       .  S
C171        C226   1.495       .  S
C172        C208   1.500       .  S
C183        C184   1.407   1_565  A
C183        C188   1.411       .  A
C183        C191   1.504   1_565  S
C184        C185   1.403       .  A
C184        H193   1.083       .  S
C185        C186   1.408   1_545  A
C185        H194   1.081       .  S
C186        C187   1.405       .  A
C186        C189   1.498       .  S
C187        C188   1.404       .  A
C187        H195   1.083       .  S
C188        H196   1.079       .  S
C189        H197   1.087       .  S
C189        C190   1.351   1_565  D
C190        H198   1.085       .  S
C191        H199   1.087       .  S
C191        C192   1.352   1_545  D
C192        H200   1.082       .  S
C201        C202   1.406   1_565  A
C201        C206   1.410       .  A
C201        C209   1.503   1_565  S
C202        C203   1.405       .  A
C202        H211   1.083       .  S
C203        C204   1.409   1_545  A
C203        H212   1.081       .  S
C204        C205   1.406       .  A
C204        C207   1.501       .  S
C205        C206   1.405       .  A
C205        H213   1.083       .  S
C206        H214   1.081       .  S
C207        H215   1.087       .  S
C207        C208   1.351   1_565  D
C208        H216   1.084       .  S
C209        H217   1.087       .  S
C209        C210   1.351   1_545  D
C210        H218   1.085       .  S
C219        C220   1.406       .  A
C219        C224   1.411   1_545  A
C219        C227   1.496       .  S
C220        C221   1.401       .  A
C220        H229   1.083       .  S
C221        C222   1.407       .  A
C221        H230   1.081       .  S
C222        C223   1.402   1_545  A
C222        C225   1.490       .  S
C223        C224   1.399       .  A
C223        H231   1.084       .  S
C224        H232   1.079       .  S
C225        H233   1.087   1_545  S
C225        C226   1.347       .  D
C226        H234   1.085       .  S
C227        H235   1.087       .  S
C227        C228   1.347   1_545  D
C228        H236   1.082       .  S
C237        C238   1.406       .  A
C237        C242   1.408   1_565  A
C237        C245   1.496       .  S
C238        C239   1.404       .  A
C238        H247   1.083       .  S
C239        C240   1.409       .  A
C239        H248   1.082       .  S
C240        C241   1.403   1_565  A
C240        C243   1.492       .  S
C241        C242   1.400       .  A
C241        H249   1.083       .  S
C242        H250   1.081       .  S
C243        H251   1.087   1_565  S
C243        C244   1.348       .  D
C244        H252   1.085       .  S
C245        H253   1.087       .  S
C245        C246   1.350   1_565  D
C246        H254   1.085       .  S
C255        C256   1.402   1_554  A
C255        C260   1.410       .  A
C255        C263   1.494       .  S
C256        C257   1.399       .  A
C256        H265   1.083       .  S
C257        C258   1.409   1_556  A
C257        H266   1.081       .  S
C258        C259   1.406       .  A
C258        C261   1.496       .  S
C259        C260   1.404       .  A
C259        H267   1.083   1_565  S
C260        H268   1.082   1_565  S
C261        H269   1.087   1_565  S
C261        C262   1.349       .  D
C262        H270   1.084       .  S
C263        H271   1.087   1_554  S
C263        C264   1.347   1_565  D
C264        H272   1.085       .  S
C273        C274   1.406       .  A
C273        C278   1.409   1_564  A
C273        C281   1.494       .  S
C274        C275   1.401       .  A
C274        H283   1.083       .  S
C275        C276   1.407   1_565  A
C275        H284   1.082       .  S
C276        C277   1.402   1_554  A
C276        C279   1.488   1_554  S
C277        C278   1.400       .  A
C277        H285   1.083       .  S
C278        H286   1.080       .  S
C279        H287   1.087       .  S
C279        C280   1.345   1_546  D
C280        H288   1.085       .  S
C281        H289   1.087       .  S
C281        C282   1.349   1_564  D
C282        H290   1.084       .  S
C291        C292   1.401       .  A
C291        C296   1.404   1_455  A
C291        C299   1.475       .  S
C292        C293   1.397       .  A
C292        H301   1.083       .  S
C293        C294   1.408       .  A
C293        H302   1.082       .  S
C294        C295   1.402   1_455  A
C294        C297   1.479       .  S
C295        C296   1.394       .  A
C295        H303   1.083       .  S
C296        H304   1.083       .  S
C297        H305   1.087   1_455  S
C297        C298   1.345       .  D
C298        H306   1.085   1_545  S
C299        H307   1.087       .  S
C299        C300   1.344   1_455  D
C300        H308   1.087       .  S
C309        C310   1.399       .  A
C309        C314   1.407   1_655  A
C309        C317   1.472       .  S
C310        C311   1.393       .  A
C310        H319   1.083       .  S
C311        C312   1.405       .  A
C311        H320   1.083       .  S
C312        C313   1.399   1_655  A
C312        C315   1.468       .  S
C313        C314   1.393       .  A
C313        H321   1.084       .  S
C314        H322   1.083       .  S
C315        H323   1.087   1_655  S
C315        C316   1.339   1_545  D
C316        H324   1.087       .  S
C317        H325   1.087       .  S
C317        C318   1.339   1_545  D
C318        H326   1.087   1_655  S
C327        C328   1.404   1_455  A
C327        C332   1.406       .  A
C327        C335   1.490       .  S
C328        C329   1.401       .  A
C328        H337   1.083       .  S
C329        C330   1.409       .  A
C329        H338   1.080       .  S
C330        C331   1.406   1_655  A
C330        C333   1.494       .  S
C331        C332   1.399       .  A
C331        H339   1.083       .  S
C332        H340   1.081       .  S
C333        H341   1.087   1_655  S
C333        C334   1.351       .  D
C334        H342   1.083       .  S
C335        H343   1.087   1_455  S
C335        C336   1.349       .  D
C336        H344   1.085       .  S
C345        C346   1.405       .  A
C345        C350   1.410   1_455  A
C345        C353   1.497       .  S
C346        C347   1.401       .  A
C346        H355   1.083       .  S
C347        C348   1.408       .  A
C347        H356   1.081       .  S
C348        C349   1.404   1_455  A
C348        C351   1.494       .  S
C349        C350   1.402       .  A
C349        H357   1.083       .  S
C350        H358   1.081       .  S
C351        H359   1.087   1_455  S
C351        C352   1.349       .  D
C352        H360   1.085       .  S
C353        H361   1.087       .  S
C353        C354   1.350   1_455  D
C354        H362   1.084       .  S
C363        C364   1.407       .  A
C363        C368   1.411       .  A
C363        C371   1.503       .  S
C364        C365   1.403       .  A
C364        H373   1.083   1_455  S
C365        C366   1.409       .  A
C365        H374   1.081   1_455  S
C366        C367   1.405       .  A
C366        C369   1.499       .  S
C367        C368   1.403       .  A
C367        H375   1.083       .  S
C368        H376   1.079       .  S
C369        H377   1.087       .  S
C369        C370   1.351       .  D
C370        H378   1.084       .  S
C371        H379   1.087       .  S
C371        C372   1.351       .  D
C372        H380   1.082       .  S
C381        C382   1.405       .  A
C381        C386   1.410       .  A
C381        C389   1.498       .  S
C382        C383   1.401       .  A
C382        H391   1.083   1_455  S
C383        C384   1.410       .  A
C383        H392   1.079   1_455  S
C384        C385   1.405       .  A
C384        C387   1.498       .  S
C385        C386   1.401       .  A
C385        H393   1.083       .  S
C386        H394   1.079       .  S
C387        H395   1.087       .  S
C387        C388   1.350       .  D
C388        H396   1.082       .  S
C389        H397   1.087       .  S
C389        C390   1.351       .  D
C390        H398   1.082       .  S
C399        C400   1.406       .  A
C399        C404   1.408   1_455  A
C399        C407   1.495       .  S
C400        C401   1.405       .  A
C400        H409   1.083       .  S
C401        C402   1.408       .  A
C401        H410   1.083       .  S
C402        C403   1.403   1_455  A
C402        C405   1.491       .  S
C403        C404   1.401       .  A
C403        H411   1.083       .  S
C404        H412   1.082       .  S
C405        H413   1.087   1_455  S
C405        C406   1.348       .  D
C406        H414   1.086   1_556  S
C407        H415   1.087       .  S
C407        C408   1.350   1_455  D
C408        H416   1.085       .  S
C417        C418   1.407   1_454  A
C417        C422   1.411       .  A
C417        C425   1.499       .  S
C418        C419   1.402       .  A
C418        H427   1.083       .  S
C419        C420   1.407   1_656  A
C419        H428   1.082       .  S
C420        C421   1.404       .  A
C420        C423   1.493       .  S
C421        C422   1.402       .  A
C421        H429   1.083       .  S
C422        H430   1.079       .  S
C423        H431   1.087       .  S
C423        C424   1.348   1_554  D
C424        H432   1.085   1_455  S
C425        H433   1.087   1_454  S
C425        C426   1.350       .  D
C426        H434   1.082       .  S
