geometry optimzed in LAMMPS
_audit_creation_date              2020-11-30 
_audit_creation_method            'lammps2cif' 
_symmetry_space_group_name_H-M    'P1' 
_symmetry_Int_Tables_number       1 
_symmetry_cell_setting            triclinic 
loop_ 
_symmetry_equiv_pos_as_xyz 
  x,y,z 
_cell_length_a                    59.96227059 
_cell_length_b                    60.106627617535864 
_cell_length_c                    29.38300885459987 
_cell_angle_alpha                 89.76214278594502 
_cell_angle_beta                  90.0956895443298 
_cell_angle_gamma                 90.04151414011771 
loop_ 
_atom_site_label 
_atom_site_type_symbol 
_atom_site_fract_x 
_atom_site_fract_y 
_atom_site_fract_z 
_atom_site_charge 
O1          O  0.83577564  0.61488304  0.96792523    -0.56100
C2          C  0.89896161  0.62372293  0.91835618     0.76500
O3          O  0.86378250  0.67061592  0.97129475    -0.57300
C4          C  0.82333892  0.62630917  0.99367668     0.76500
C5          C  0.87756603  0.60669540  0.07721759     0.78900
Cd6        Cd  0.87084659  0.63241693  0.99558865     1.37500
O7          O  0.87791968  0.62240755  0.91593327    -0.56100
O8          O  0.87710361  0.59726895  0.03874183    -0.54900
C9          C  0.87797326  0.67978322  0.99702590     0.78800
O10         O  0.87723446  0.62771368  0.07667336    -0.57300
O11         O  0.90700284  0.62667708  0.95774411    -0.55700
O12         O  0.83290856  0.64084841  0.01772258    -0.55700
O13         O  0.88893983  0.66689566  0.02290046    -0.54900
O14         O  0.89380975  0.85868065  0.97092784    -0.56100
C15         C  0.88358070  0.92132401  0.92027489     0.76500
O16         O  0.84240786  0.90751826  0.02941415    -0.57300
C17         C  0.88371322  0.84659772  0.99976375     0.76500
C18         C  0.90746965  0.90326450  0.07336415     0.78900
Cd19       Cd  0.87812543  0.89386607  0.99920298     1.37500
O20         O  0.88758569  0.90066611  0.91935680    -0.56100
O21         O  0.91453224  0.89712026  0.03487367    -0.54900
C22         C  0.83055796  0.89616985  0.00227002     0.78800
O23         O  0.88685841  0.90761355  0.07616950    -0.57300
O24         O  0.87948385  0.92950462  0.95897154    -0.55700
O25         O  0.87146860  0.85664200  0.02801620    -0.55700
O26         O  0.84095004  0.88384410  0.97479542    -0.54900
O27         O  0.65322172  0.88045881  0.01975089    -0.56100
C28         C  0.59078526  0.89414198  0.90792745     0.76500
O29         O  0.59721727  0.85270461  0.01281062    -0.57300
C30         C  0.66321158  0.89430342  0.99449831     0.76500
C31         C  0.60854312  0.91376401  0.07036707     0.78900
Cd32       Cd  0.61611340  0.88753007  0.99058868     1.37500
O33         O  0.61188417  0.89477269  0.90831442    -0.56100
O34         O  0.61187579  0.92286291  0.03200276    -0.54900
C35         C  0.61113724  0.84015710  0.99312150     0.78800
O36         O  0.60548833  0.89293500  0.07006093    -0.57300
O37         O  0.58145277  0.89302815  0.94652046    -0.55700
O38         O  0.65129797  0.90494666  0.96610764    -0.55700
O39         O  0.62732387  0.84973629  0.97368050    -0.54900
O40         O  0.59782823  0.61673953  0.92771234    -0.56100
C41         C  0.60579303  0.67289154  0.00208527     0.76500
O42         O  0.60039373  0.61300362  0.08438941    -0.57300
C43         C  0.60213484  0.59616025  0.93063050     0.76500
C44         C  0.65602042  0.62060318  0.00804788     0.78900
Cd45       Cd  0.60858880  0.62520842  0.00647339     1.37500
O46         O  0.59349696  0.66083624  0.97716077    -0.56100
O47         O  0.64544605  0.63040689  0.97662408    -0.54900
C48         C  0.57949296  0.61561471  0.08154894     0.78800
O49         O  0.64438292  0.61250156  0.04011687    -0.57300
O50         O  0.61871080  0.66273981  0.02910389    -0.55700
O51         O  0.60710162  0.58892725  0.96983528    -0.55700
O52         O  0.57199593  0.62117114  0.04285503    -0.54900
C53         C  0.66147534  0.50601866  0.57701738     0.88200
C54         C  0.64745404  0.48429616  0.57648207    -0.52100
C55         C  0.62611924  0.48704375  0.59206907     0.11100
C56         C  0.62080835  0.51071857  0.60767613     0.22100
C57         C  0.64730376  0.52311787  0.55069818    -0.52800
C58         C  0.62623466  0.52561230  0.56692819     0.11200
C59         C  0.66006783  0.51328175  0.62733770    -0.52300
C60         C  0.63879964  0.51599465  0.64305578     0.11800
H61         H  0.65345566  0.46809710  0.56634011     0.16300
H62         H  0.60347876  0.51294215  0.62018912     0.02000
H63         H  0.65365271  0.53291773  0.52238562     0.16600
H64         H  0.67459374  0.51610231  0.64865708     0.16400
C65         C  0.81754025  0.52146333  0.43789401     0.88200
C66         C  0.83116260  0.49986272  0.44153961    -0.52100
C67         C  0.85283169  0.50166448  0.42782759     0.11100
C68         C  0.85909615  0.52525706  0.41223036     0.22100
C69         C  0.83101336  0.53898060  0.46456905    -0.52800
C70         C  0.85269433  0.54074357  0.45147277     0.11200
C71         C  0.82053275  0.52924030  0.38776184    -0.52300
C72         C  0.84240920  0.53120831  0.37430706     0.11800
H73         H  0.82411586  0.48442346  0.45438300     0.16300
H74         H  0.87673392  0.52661713  0.40162131     0.02000
H75         H  0.82388055  0.54954738  0.49066961     0.16600
H76         H  0.80708611  0.53487981  0.36609354     0.16400
C77         C  0.49411088  0.67169001  0.43910484     0.88200
C78         C  0.47284499  0.65702769  0.44275953    -0.52100
C79         C  0.47545571  0.63577717  0.42689560     0.11100
C80         C  0.49903362  0.63091537  0.40948490     0.22100
C81         C  0.51178698  0.65792256  0.46511949    -0.52800
C82         C  0.51453620  0.63685702  0.44902417     0.11200
C83         C  0.50100698  0.67000457  0.38866303    -0.52300
C84         C  0.50349772  0.64872717  0.37339972     0.11800
H85         H  0.45733168  0.66188107  0.45829792     0.16300
H86         H  0.50148522  0.61372736  0.39669845     0.02000
H87         H  0.52166201  0.66442310  0.49309490     0.16600
H88         H  0.50406859  0.68443242  0.36717813     0.16400
C89         C  0.50359854  0.83339451  0.54803697     0.88200
C90         C  0.48279836  0.84822566  0.54332312    -0.52100
C91         C  0.48565844  0.86953847  0.55860695     0.11100
C92         C  0.50918724  0.87406936  0.57706832     0.22100
C93         C  0.52239282  0.84636661  0.52353794    -0.52800
C94         C  0.52519540  0.86763384  0.53866005     0.11200
C95         C  0.51053791  0.83515781  0.59876603    -0.52300
C96         C  0.51322681  0.85648570  0.61387019     0.11800
H97         H  0.46726153  0.84230541  0.52871291     0.16300
H98         H  0.51170953  0.89125615  0.58966361     0.02000
H99         H  0.53347960  0.83907992  0.49856432     0.16600
H100        H  0.51448857  0.82098613  0.62022717     0.16400
C101        C  0.98980513  0.68533986  0.56404317     0.88200
C102        C  0.01081183  0.67051233  0.56055120    -0.52100
C103        C  0.00789929  0.64932641  0.57667885     0.11100
C104        C  0.98426388  0.64478392  0.59443899     0.22100
C105        C  0.97198319  0.67169312  0.53804819    -0.52800
C106        C  0.96871209  0.65072931  0.55477479     0.11200
C107        C  0.98278185  0.68393583  0.61436806    -0.52300
C108        C  0.97982642  0.66272281  0.63037383     0.11800
H109        H  0.02623713  0.67556475  0.54436993     0.16300
H110        H  0.98186459  0.62751879  0.60697261     0.02000
H111        H  0.96242277  0.67809957  0.50950979     0.16600
H112        H  0.98013360  0.69857134  0.63519573     0.16400
C113        C  0.99347360  0.84262060  0.42938500     0.88200
C114        C  0.01552318  0.85564241  0.43329907    -0.52100
C115        C  0.01433596  0.87736743  0.41945459     0.11100
C116        C  0.99105333  0.88412610  0.40221346     0.22100
C117        C  0.97635175  0.85682835  0.45551935    -0.52800
C118        C  0.97490482  0.87849250  0.44124627     0.11200
C119        C  0.98614291  0.84565546  0.37909642    -0.52300
C120        C  0.98514775  0.86730887  0.36528420     0.11800
H121        H  0.03078047  0.84822126  0.44627484     0.16300
H122        H  0.98982127  0.90155879  0.38994769     0.02000
H123        H  0.96608654  0.85011203  0.48269876     0.16600
H124        H  0.98013908  0.83277521  0.35675954     0.16400
C125        C  0.66778702  0.00520122  0.42684973     0.88200
C126        C  0.65453467  0.02726322  0.42666647    -0.52100
C127        C  0.63275524  0.02526122  0.41326849     0.11100
C128        C  0.62633916  0.00129283  0.40024412     0.22100
C129        C  0.65391075  0.98893622  0.45551226    -0.52800
C130        C  0.63238981  0.98678093  0.44152685     0.11200
C131        C  0.66497829  0.99687441  0.37737289    -0.52300
C132        C  0.64324546  0.99435326  0.36356502     0.11800
H133        H  0.66171606  0.04316639  0.43594233     0.16300
H134        H  0.60873847  0.99976023  0.38927131     0.02000
H135        H  0.66096285  0.97878870  0.48262547     0.16600
H136        H  0.67885977  0.99284280  0.35547883     0.16400
C137        C  0.82612893  0.00975846  0.55954899     0.88200
C138        C  0.84072687  0.03101807  0.55649232    -0.52100
C139        C  0.86194542  0.02847322  0.57306251     0.11100
C140        C  0.86645822  0.00509056  0.59236713     0.22100
C141        C  0.84008047  0.99160860  0.53618523    -0.52800
C142        C  0.86115049  0.98911779  0.55322957     0.11200
C143        C  0.82698378  0.00375518  0.61063348    -0.52300
C144        C  0.84801562  0.00079271  0.62750939     0.11800
H145        H  0.83524408  0.04684195  0.54317287     0.16300
H146        H  0.88349335  0.00310173  0.60647230     0.02000
H147        H  0.83349870  0.98123418  0.50913235     0.16600
H148        H  0.81220861  0.00130651  0.63137413     0.16400
O149        O  0.08956503  0.40024685  0.07221875    -0.56100
C150        C  0.14662172  0.39356621  0.99381391     0.76500
O151        O  0.08628530  0.35047394  0.96673709    -0.57300
C152        C  0.06953942  0.39352991  0.07049526     0.76500
C153        C  0.09032378  0.41637698  0.91992910     0.78900
Cd154      Cd  0.09911704  0.38736061  0.99534336     1.37500
O155        O  0.13520699  0.40038075  0.02731598    -0.56100
O156        O  0.09481918  0.42426002  0.95877347    -0.54900
C157        C  0.09745011  0.33945000  0.99578481     0.78800
O158        O  0.08700005  0.39558478  0.91808460    -0.57300
O159        O  0.13593536  0.38392325  0.96244511    -0.55700
O160        O  0.06282593  0.38621228  0.03256276    -0.55700
O161        O  0.10929717  0.35072635  0.02283850    -0.54900
O162        O  0.10204380  0.11479560  0.08851563    -0.56100
C163        C  0.10729707  0.17216372  0.01452044     0.76500
O164        O  0.14564454  0.10928630  0.97242140    -0.57300
C165        C  0.10403836  0.09393034  0.08451679     0.76500
C166        C  0.08381426  0.12182671  0.92731360     0.78900
Cd167      Cd  0.11135154  0.12435707  0.00833944     1.37500
O168        O  0.09288523  0.15944231  0.03246426    -0.56100
O169        O  0.07582256  0.12689991  0.96571101    -0.54900
C170        C  0.15880117  0.11707205  0.00224183     0.78800
O171        O  0.10392894  0.11542277  0.92732917    -0.57300
O172        O  0.12398012  0.16264352  0.99694641    -0.55700
O173        O  0.10666277  0.08691446  0.04431985    -0.55700
O174        O  0.14989505  0.12869637  0.03308943    -0.54900
O175        O  0.39026946  0.15381086  0.98681435    -0.56100
C176        C  0.38479876  0.09219625  0.92662371     0.76500
O177        O  0.38002604  0.10734713  0.08665067    -0.57300
C178        C  0.37633232  0.16508010  0.00941161     0.76500
C179        C  0.32617782  0.10887241  0.00461252     0.78900
Cd180      Cd  0.37366112  0.11727376  0.00680908     1.37500
O181        O  0.38442887  0.11324290  0.92688249    -0.56100
O182        O  0.33597023  0.12189772  0.97727192    -0.54900
C183        C  0.40093350  0.11028033  0.08596299     0.78800
O184        O  0.33849284  0.09934204  0.03394777    -0.57300
O185        O  0.38208160  0.08271899  0.96481430    -0.55700
O186        O  0.36139206  0.15419840  0.03006809    -0.55700
O187        O  0.40959766  0.11363844  0.04730324    -0.54900
O188        O  0.36703707  0.39001369  0.91901563    -0.56100
C189        C  0.31408544  0.38747027  0.98498409     0.76500
O190        O  0.37966608  0.34551701  0.03019224    -0.57300
C191        C  0.38801791  0.38777217  0.91924796     0.76500
C192        C  0.36330887  0.40360334  0.08341480     0.78900
Cd193      Cd  0.36093617  0.37943864  0.99891879     1.37500
O194        O  0.32785422  0.40349857  0.98485043    -0.56100
O195        O  0.37539867  0.40947033  0.05008907    -0.54900
C196        C  0.36867120  0.33218139  0.00543941     0.78800
O197        O  0.35230462  0.38583454  0.07870791    -0.57300
O198        O  0.32232280  0.36819352  0.98880922    -0.55700
O199        O  0.39689536  0.38452143  0.95783553    -0.55700
O200        O  0.35412433  0.34085817  0.97985874    -0.54900
C201        C  0.15691226  0.50446113  0.57009731     0.88200
C202        C  0.15221933  0.49763754  0.62041036    -0.52100
C203        C  0.13003293  0.49688068  0.63158510     0.11100
C204        C  0.11459471  0.50366953  0.59237757     0.22100
C205        C  0.14259652  0.48814125  0.54208000    -0.52800
C206        C  0.12057173  0.48780801  0.55369765     0.11200
C207        C  0.14485477  0.52716597  0.56549191    -0.52300
C208        C  0.12277950  0.52667100  0.57731211     0.11800
H209        H  0.16464162  0.49352928  0.64558897     0.16300
H210        H  0.09660484  0.50343469  0.60128980     0.02000
H211        H  0.14943253  0.47740897  0.51593486     0.16600
H212        H  0.15316828  0.54235291  0.55474958     0.16400
C213        C  0.31708346  0.50235699  0.43916989     0.88200
C214        C  0.31644020  0.49452760  0.38926602    -0.52100
C215        C  0.33693272  0.49212105  0.36951357     0.11100
C216        C  0.35638688  0.49791944  0.40110922     0.22100
C217        C  0.33269844  0.48539438  0.46327927    -0.52800
C218        C  0.35305989  0.48278198  0.44275985     0.11200
C219        C  0.33137403  0.52382968  0.43882605    -0.52300
C220        C  0.35173855  0.52145313  0.41861547     0.11800
H221        H  0.30108901  0.48998547  0.37195426     0.16300
H222        H  0.37306491  0.49613083  0.38510623     0.02000
H223        H  0.32796481  0.47594864  0.49330059     0.16600
H224        H  0.32704084  0.53904872  0.45628405     0.16400
C225        C  0.49454011  0.17966745  0.42824504     0.88200
C226        C  0.48536937  0.17476274  0.37983578    -0.52100
C227        C  0.48427463  0.15258014  0.36944580     0.11100
C228        C  0.49233998  0.13732528  0.40803513     0.22100
C229        C  0.47890820  0.16593795  0.45918803    -0.52800
C230        C  0.47781134  0.14386183  0.44886668     0.11200
C231        C  0.51710689  0.16745544  0.43013504    -0.52300
C232        C  0.51594412  0.14545041  0.41924442     0.11800
H233        H  0.47850711  0.18694199  0.35666996     0.16300
H234        H  0.49165497  0.11934354  0.39961605     0.02000
H235        H  0.46905212  0.17323553  0.48626260     0.16600
H236        H  0.53273419  0.17564060  0.43864770     0.16400
C237        C  0.48683050  0.33596402  0.56540556     0.88200
C238        C  0.47696413  0.33742965  0.61410248    -0.52100
C239        C  0.47336514  0.35870301  0.62893239     0.11100
C240        C  0.48076592  0.37657028  0.59461668     0.22100
C241        C  0.47108904  0.35005615  0.53562781    -0.52800
C242        C  0.46772715  0.37122968  0.55088676     0.11200
C243        C  0.50840163  0.34979848  0.56926110    -0.52300
C244        C  0.50523550  0.37109034  0.58394427     0.11800
H245        H  0.47315374  0.32317945  0.63535163     0.16300
H246        H  0.47829004  0.39378505  0.60707000     0.02000
H247        H  0.46312701  0.34361876  0.50518098     0.16600
H248        H  0.52490370  0.34325080  0.56233559     0.16400
C249        C  0.17082009  0.01392672  0.44518331     0.88200
C250        C  0.16814477  0.01913993  0.39369908    -0.52100
C251        C  0.14652586  0.02090293  0.37941080     0.11100
C252        C  0.12943963  0.01674769  0.41721679     0.22100
C253        C  0.15701377  0.03195903  0.46928447    -0.52800
C254        C  0.13543370  0.03363381  0.45452183     0.11200
C255        C  0.15718883  0.99223558  0.45108296    -0.52300
C256        C  0.13547961  0.99378902  0.43693013     0.11800
H257        H  0.18173217  0.02071102  0.36970965     0.16300
H258        H  0.11192842  0.01789502  0.40513149     0.02000
H259        H  0.16409632  0.04305181  0.49456194     0.16600
H260        H  0.16409971  0.97693285  0.46481334     0.16400
C261        C  0.33228378  0.00781746  0.56221163     0.88200
C262        C  0.33374589  0.01332104  0.61341102    -0.52100
C263        C  0.35495703  0.01617008  0.62962752     0.11100
C264        C  0.37296916  0.01258928  0.59346383     0.22100
C265        C  0.34594465  0.02640579  0.53851734    -0.52800
C266        C  0.36704049  0.02907523  0.55540514     0.11200
C267        C  0.34713944  0.98693596  0.55699907    -0.52300
C268        C  0.36821166  0.98954141  0.57360818     0.11800
H269        H  0.31908491  0.01547615  0.63457891     0.16300
H270        H  0.39032715  0.01463913  0.60596353     0.02000
H271        H  0.33918093  0.03709139  0.51199526     0.16600
H272        H  0.34250493  0.97142073  0.54138115     0.16400
C273        C  0.00171131  0.18280190  0.56216934     0.88200
C274        C  0.00868787  0.18052171  0.61270691    -0.52100
C275        C  0.01065037  0.15906939  0.62742375     0.11100
C276        C  0.00611142  0.14170585  0.59055776     0.22100
C277        C  0.02011297  0.16945636  0.53743156    -0.52800
C278        C  0.02217302  0.14795464  0.55210985     0.11200
C279        C  0.98041976  0.16851845  0.55757705    -0.52300
C280        C  0.98259533  0.14690452  0.57226583     0.11800
H281        H  0.01378685  0.19420018  0.63421123     0.16300
H282        H  0.00873583  0.12437376  0.60243663     0.02000
H283        H  0.03100267  0.17648141  0.51164371     0.16600
H284        H  0.96489536  0.17528869  0.54455890     0.16400
C285        C  0.98609050  0.34220231  0.43618748     0.88200
C286        C  0.99224630  0.34323172  0.38530060    -0.52100
C287        C  0.99411267  0.36423913  0.36822447     0.11100
C288        C  0.98931391  0.38258282  0.40292908     0.22100
C289        C  0.00362270  0.35693416  0.45986824    -0.52800
C290        C  0.00541942  0.37800997  0.44260184     0.11200
C291        C  0.96421595  0.35603461  0.43884192    -0.52300
C292        C  0.96603621  0.37723720  0.42170875     0.11800
H293        H  0.99581321  0.32861662  0.36495241     0.16300
H294        H  0.99079170  0.39966733  0.38892844     0.02000
H295        H  0.01422833  0.35080191  0.48714809     0.16600
H296        H  0.94836126  0.35005694  0.45109177     0.16400
C297        C  0.99164015  0.24664637  0.55490800     0.14400
C298        C  0.99363988  0.25074553  0.50802469     0.01300
C299        C  0.99712608  0.23263092  0.47887576     0.16300
C300        C  0.99897850  0.21092331  0.49630155     0.25700
C301        C  0.99848417  0.20674104  0.54378971    -0.40600
C302        C  0.99357427  0.22500726  0.57253915     0.32800
C303        C  0.99128547  0.27379436  0.48949008     0.01400
F304        F  0.99817222  0.23588742  0.43317285    -0.12900
F305        F  0.98924574  0.22215963  0.61743929    -0.13500
C306        C  0.00868450  0.28374556  0.46490220     0.16300
C307        C  0.00664427  0.30555531  0.44834435     0.25700
C308        C  0.98691276  0.31814558  0.45511167    -0.40600
C309        C  0.96961686  0.30801089  0.48076513     0.32700
C310        C  0.97180726  0.28616165  0.49726434     0.14400
F311        F  0.02802881  0.27253458  0.45795436    -0.12900
F312        F  0.95082197  0.31903943  0.49221600    -0.13400
F313        F  0.02434660  0.31455372  0.42607438    -0.15700
F314        F  0.95469306  0.27701377  0.52108490    -0.14300
F315        F  0.98777862  0.26372749  0.58395663    -0.14300
F316        F  0.00080024  0.19392235  0.46627605    -0.15700
C317        C  0.09117830  0.07882579  0.45246854     0.14400
C318        C  0.08913440  0.08410989  0.49868970     0.01300
C319        C  0.10272995  0.07316709  0.53069042     0.16300
C320        C  0.11788258  0.05679539  0.51658449     0.25700
C321        C  0.11972297  0.05122982  0.47015290    -0.40600
C322        C  0.10633757  0.06264444  0.43827049     0.32800
C323        C  0.07218360  0.10053368  0.51306785     0.01400
F324        F  0.10089090  0.07793089  0.57565834    -0.12900
F325        F  0.10825650  0.05862676  0.39304792    -0.13500
C326        C  0.04942222  0.09523955  0.50971804     0.16300
C327        C  0.03319686  0.11091018  0.52137561     0.25700
C328        C  0.03945486  0.13225867  0.53593753    -0.40600
C329        C  0.06224573  0.13767024  0.53882719     0.32700
C330        C  0.07850979  0.12182069  0.52789696     0.14400
F331        F  0.04295462  0.07475452  0.49551906    -0.12900
F332        F  0.06875736  0.15806368  0.55342614    -0.13400
F333        F  0.01131114  0.10532196  0.51798042    -0.15700
F334        F  0.10041711  0.12727796  0.53138995    -0.14300
F335        F  0.07853261  0.08956294  0.42092663    -0.14300
F336        F  0.13017753  0.04589999  0.54846519    -0.15700
C337        C  0.27433753  0.98924084  0.51424844     0.14400
C338        C  0.26228596  0.00912781  0.51730955     0.01300
C339        C  0.27278019  0.02795766  0.53534815     0.16300
C340        C  0.29502002  0.02700672  0.54981434     0.25700
C341        C  0.30775366  0.00724724  0.54582191    -0.40600
C342        C  0.29675609  0.98819837  0.52795977     0.32800
C343        C  0.23909170  0.01054639  0.49965722     0.01400
F344        F  0.26139319  0.04737612  0.53910076    -0.12900
F345        F  0.30698294  0.96830085  0.52357496    -0.13500
C346        C  0.22129934  0.00058384  0.52301751     0.16300
C347        C  0.19944747  0.00209756  0.50595408     0.25700
C348        C  0.19491651  0.01289071  0.46391152    -0.40600
C349        C  0.21287290  0.02434316  0.44279543     0.32700
C350        C  0.23463151  0.02267638  0.45990217     0.14400
F351        F  0.22502388  0.98985129  0.56306967    -0.12900
F352        F  0.20956878  0.03847853  0.40739839    -0.13400
F353        F  0.18265762  0.99351788  0.53152194    -0.15700
F354        F  0.25148196  0.03320626  0.43771085    -0.14300
F355        F  0.26444566  0.97076679  0.49699514    -0.14300
F356        F  0.30419928  0.04566349  0.56787623    -0.15700
C357        C  0.40375658  0.06656548  0.48284027     0.14400
C358        C  0.41358253  0.08020411  0.51602962     0.01300
C359        C  0.40739849  0.07762311  0.56173856     0.16300
C360        C  0.39197667  0.06122774  0.57430592     0.25700
C361        C  0.38239911  0.04722170  0.54127263    -0.40600
C362        C  0.38820749  0.05021959  0.49532654     0.32800
C363        C  0.43026032  0.09713904  0.50270213     0.01400
F364        F  0.41629737  0.09101461  0.59414998    -0.12900
F365        F  0.37939055  0.03685940  0.46278882    -0.13500
C366        C  0.42331688  0.11834703  0.48856320     0.16300
C367        C  0.43890482  0.13388628  0.47273257     0.25700
C368        C  0.46170025  0.12834708  0.47049604    -0.40600
C369        C  0.46868884  0.10730529  0.48588516     0.32700
C370        C  0.45307666  0.09185729  0.50220608     0.14400
F371        F  0.40134306  0.12377187  0.48906323    -0.12900
F372        F  0.49062713  0.10174319  0.48509229    -0.13400
F373        F  0.43156207  0.15392175  0.45736497    -0.15700
F374        F  0.46013456  0.07158134  0.51675074    -0.14300
F375        F  0.40946226  0.06896752  0.43839728    -0.14300
F376        F  0.38611198  0.05932506  0.61872874    -0.15700
C377        C  0.49200945  0.24438366  0.43571125     0.14400
C378        C  0.49600363  0.24757702  0.48233091     0.01300
C379        C  0.50148468  0.22911243  0.50937126     0.16300
C380        C  0.50196243  0.20773880  0.49076222     0.25700
C381        C  0.49636317  0.20398314  0.44458430    -0.40600
C382        C  0.49245314  0.22296984  0.41678448     0.32800
C383        C  0.49389280  0.26997925  0.50330223     0.01400
F384        F  0.50630161  0.23178125  0.55418635    -0.12900
F385        F  0.48973516  0.22148453  0.37118519    -0.13500
C386        C  0.47799255  0.27364964  0.53740700     0.16300
C387        C  0.47561186  0.29464229  0.55731741     0.25700
C388        C  0.48987902  0.31250984  0.54519533    -0.40600
C389        C  0.50494119  0.30890461  0.50871428     0.32700
C390        C  0.50714593  0.28786374  0.48872659     0.14400
F391        F  0.46399136  0.25700113  0.55020059    -0.12900
F392        F  0.51705486  0.32587982  0.49079223    -0.13400
F393        F  0.45824573  0.29752129  0.58614868    -0.15700
F394        F  0.52226535  0.28498379  0.45490211    -0.14300
F395        F  0.48709965  0.26202800  0.40847393    -0.14300
F396        F  0.50748197  0.19046794  0.51851889    -0.15700
C397        C  0.39571497  0.43602464  0.43866416     0.14400
C398        C  0.40245828  0.43452524  0.48429002     0.01300
C399        C  0.39300794  0.44898765  0.51640442     0.16300
C400        C  0.37677522  0.46452836  0.50317381     0.25700
C401        C  0.37000906  0.46610364  0.45741024    -0.40600
C402        C  0.37983022  0.45180702  0.42523518     0.32800
C403        C  0.41956160  0.41807711  0.49837574     0.01400
F404        F  0.39950162  0.44797573  0.56064595    -0.12900
F405        F  0.37384863  0.45279466  0.38076516    -0.13500
C406        C  0.44098610  0.42519598  0.51097013     0.16300
C407        C  0.45691625  0.40985213  0.52624848     0.25700
C408        C  0.45160694  0.38708788  0.52977873    -0.40600
C409        C  0.43023994  0.37992011  0.51597757     0.32700
C410        C  0.41444267  0.39528449  0.50007765     0.14400
F411        F  0.44647223  0.44707678  0.50830285    -0.12900
F412        F  0.42420321  0.35822434  0.51996754    -0.13400
F413        F  0.47762308  0.41727580  0.53716774    -0.15700
F414        F  0.39385911  0.38800972  0.48779409    -0.14300
F415        F  0.40479339  0.42239197  0.40696239    -0.14300
F416        F  0.36817937  0.47848668  0.53480986    -0.15700
C417        C  0.09070061  0.43393067  0.52662526     0.14400
C418        C  0.07084474  0.44176704  0.50681108     0.01300
C419        C  0.06781104  0.46478995  0.50088836     0.16300
C420        C  0.08426489  0.47976850  0.51518107     0.25700
C421        C  0.10414768  0.47192752  0.53480240    -0.40600
C422        C  0.10728938  0.44889509  0.54030705     0.32800
C423        C  0.05364491  0.42587648  0.49094671     0.01400
F424        F  0.04874669  0.47273797  0.48187417    -0.12900
F425        F  0.12604199  0.44095976  0.56059514    -0.13500
C426        C  0.04224781  0.41212504  0.52192640     0.16300
C427        C  0.02639944  0.39676129  0.50642657     0.25700
C428        C  0.02190830  0.39465297  0.45949946    -0.40600
C429        C  0.03337813  0.40858633  0.42869457     0.32700
C430        C  0.04892169  0.42412253  0.44435162     0.14400
F431        F  0.04623367  0.41383527  0.56728193    -0.12900
F432        F  0.03028125  0.40673517  0.38314646    -0.13400
F433        F  0.01509323  0.38435575  0.53747269    -0.15700
F434        F  0.05988686  0.43710208  0.41377239    -0.14300
F435        F  0.09406065  0.41175662  0.53235964    -0.14300
F436        F  0.08086626  0.50194871  0.50966990    -0.15700
C437        C  0.20752172  0.51393175  0.49046855     0.14400
C438        C  0.22566511  0.50536244  0.51529999     0.01300
C439        C  0.22147651  0.49624471  0.55853954     0.16300
C440        C  0.19979864  0.49557215  0.57666142     0.25700
C441        C  0.18140185  0.50486338  0.55264993    -0.40600
C442        C  0.18581905  0.51359743  0.50863939     0.32800
C443        C  0.24876322  0.50492348  0.49555276     0.01400
F444        F  0.23853547  0.48766086  0.58346847    -0.12900
F445        F  0.16887978  0.52139420  0.48231968    -0.13500
C446        C  0.25937215  0.52453789  0.48084966     0.16300
C447        C  0.28110582  0.52404651  0.46272967     0.25700
C448        C  0.29326707  0.50381211  0.45971150    -0.40600
C449        C  0.28179645  0.48406426  0.47200077     0.32700
C450        C  0.26019953  0.48468364  0.49044338     0.14400
F451        F  0.24864162  0.54435925  0.48397875    -0.12900
F452        F  0.29121338  0.46383838  0.46505626    -0.13400
F453        F  0.28935925  0.54337490  0.44584745    -0.15700
F454        F  0.25013163  0.46524208  0.50207799    -0.14300
F455        F  0.21064929  0.52195737  0.44769413    -0.14300
F456        F  0.19727246  0.48442999  0.61637413    -0.15700
C457        C  0.43683081  0.38580562  0.83655711     0.14400
C458        C  0.42609007  0.37936090  0.79607172     0.01300
C459        C  0.40273713  0.37730451  0.79586005     0.16300
C460        C  0.39037345  0.38136001  0.83525670     0.25700
C461        C  0.40109250  0.38709188  0.87630689    -0.40600
C462        C  0.42448652  0.38945685  0.87640951     0.32800
C463        C  0.43903100  0.37459404  0.75400672     0.01400
F464        F  0.39189106  0.37040026  0.75783853    -0.12900
F465        F  0.43546173  0.39512501  0.91511720    -0.13500
C466        C  0.45584871  0.35825255  0.75376242     0.16300
C467        C  0.46724656  0.35317324  0.71342100     0.25700
C468        C  0.46189293  0.36421140  0.67245638    -0.40600
C469        C  0.44509769  0.38058214  0.67292782     0.32700
C470        C  0.43393291  0.38579515  0.71322808     0.14400
F471        F  0.46083677  0.34677985  0.79235309    -0.12900
F472        F  0.43880001  0.39106946  0.63399476    -0.13400
F473        F  0.48369206  0.33767062  0.71461088    -0.15700
F474        F  0.41800290  0.40183858  0.71236364    -0.14300
F475        F  0.45929981  0.38857685  0.83748645    -0.14300
F476        F  0.36793180  0.37840575  0.83366010    -0.15700
C477        C  0.37589459  0.43977980  0.18622425     0.14400
C478        C  0.35430029  0.44291198  0.20406944     0.01300
C479        C  0.33601255  0.43346940  0.18120568     0.16300
C480        C  0.33920995  0.42054899  0.14243499     0.25700
C481        C  0.36071858  0.41725062  0.12475327    -0.40600
C482        C  0.37903247  0.42726777  0.14643841     0.32800
C483        C  0.35048390  0.45560385  0.24674284     0.01400
F484        F  0.31489311  0.43704620  0.19611177    -0.12900
F485        F  0.39996522  0.42429315  0.13003814    -0.13500
C486        C  0.35822923  0.47757540  0.25153329     0.16300
C487        C  0.35355847  0.48964342  0.29112909     0.25700
C488        C  0.34051416  0.48023193  0.32596518    -0.40600
C489        C  0.33288047  0.45826227  0.32125741     0.32700
C490        C  0.33808353  0.44597913  0.28240935     0.14400
F491        F  0.36991626  0.48752492  0.21753216    -0.12900
F492        F  0.32135633  0.44827160  0.35544469    -0.13400
F493        F  0.36156851  0.51062076  0.29511327    -0.15700
F494        F  0.33139843  0.42442531  0.28003692    -0.14300
F495        F  0.39397133  0.44826611  0.20796888    -0.14300
F496        F  0.32109456  0.41175770  0.12127252    -0.15700
C497        C  0.35415164  0.05306978  0.73398018     0.14400
C498        C  0.37299025  0.04553393  0.75798265     0.01300
C499        C  0.38517009  0.02746303  0.74098761     0.16300
C500        C  0.37886221  0.01734931  0.70011485     0.25700
C501        C  0.36018285  0.02509720  0.67556858    -0.40600
C502        C  0.34784499  0.04304161  0.69313619     0.32800
C503        C  0.37975206  0.05670124  0.80066569     0.01400
F504        F  0.40355830  0.02001634  0.76334515    -0.12900
F505        F  0.33036070  0.05173481  0.66966345    -0.13500
C506        C  0.37987622  0.04498339  0.84209487     0.16300
C507        C  0.38328754  0.05623577  0.88315071     0.25700
C508        C  0.38642468  0.07950232  0.88345892    -0.40600
C509        C  0.38800483  0.09085397  0.84146043     0.32700
C510        C  0.38464187  0.07954569  0.80054679     0.14400
F511        F  0.37527327  0.02286466  0.84305175    -0.12900
F512        F  0.39177794  0.11312022  0.83983521    -0.13400
F513        F  0.38225730  0.04447227  0.92263078    -0.15700
F514        F  0.38542325  0.09107075  0.76072023    -0.14300
F515        F  0.34189448  0.07032195  0.75003383    -0.14300
F516        F  0.39115291  0.00004883  0.68458769    -0.15700
C517        C  0.41630942  0.12435319  0.20697772     0.14400
C518        C  0.43961205  0.12208460  0.20652866     0.01300
C519        C  0.45011094  0.11412088  0.16709005     0.16300
C520        C  0.43750103  0.10916194  0.12818463     0.25700
C521        C  0.41415103  0.11181940  0.12842668    -0.40600
C522        C  0.40368775  0.11904778  0.16859576     0.32800
C523        C  0.45270132  0.12858307  0.24717084     0.01400
F524        F  0.47257206  0.11132099  0.16619842    -0.12900
F525        F  0.38131116  0.12244841  0.16993618    -0.13500
C526        C  0.44826553  0.11851886  0.28938011     0.16300
C527        C  0.45876404  0.12608395  0.32884681     0.25700
C528        C  0.47401623  0.14390400  0.32692428    -0.40600
C529        C  0.47896429  0.15355564  0.28437209     0.32700
C530        C  0.46838555  0.14595057  0.24481249     0.14400
F531        F  0.43337071  0.10154752  0.29246684    -0.12900
F532        F  0.49407027  0.17031778  0.28105131    -0.13400
F533        F  0.45312069  0.11655264  0.36914446    -0.15700
F534        F  0.47283851  0.15609094  0.20445765    -0.14300
F535        F  0.40582103  0.13279272  0.24401774    -0.14300
F536        F  0.44814759  0.10206012  0.09018036    -0.15700
C537        C  0.36505534  0.27142333  0.97232424     0.14400
C538        C  0.37705414  0.26106173  0.00746131     0.01300
C539        C  0.38739528  0.27414791  0.04087097     0.16300
C540        C  0.38505290  0.29735058  0.04009278     0.25700
C541        C  0.37234250  0.30777324  0.00570371    -0.40600
C542        C  0.36274508  0.29451157  0.97130435     0.32800
C543        C  0.37746028  0.23653578  0.01042794     0.01400
F544        F  0.39907339  0.26437023  0.07513800    -0.12900
F545        F  0.35103614  0.30380845  0.93649675    -0.13500
C546        C  0.39732486  0.22463390  0.00384667     0.16300
C547        C  0.39713231  0.20132103  0.00413218     0.25700
C548        C  0.37703670  0.18964663  0.01110484    -0.40600
C549        C  0.35732804  0.20170909  0.01915223     0.32700
C550        C  0.35754321  0.22492002  0.01851621     0.14400
F551        F  0.41675501  0.23559737  0.99601440    -0.12900
F552        F  0.33764726  0.19106779  0.02628402    -0.13400
F553        F  0.41660054  0.19019900  0.99813775    -0.15700
F554        F  0.33820914  0.23614287  0.02552204    -0.14300
F555        F  0.35540926  0.25907651  0.93903940    -0.14300
F556        F  0.39465875  0.30947664  0.07371135    -0.15700
C557        C  0.05264310  0.14781896  0.72058076     0.14400
C558        C  0.03898477  0.14007553  0.75623913     0.01300
C559        C  0.01572933  0.13915660  0.74941196     0.16300
C560        C  0.00640158  0.14584486  0.70778492     0.25700
C561        C  0.02017568  0.15312207  0.67218723    -0.40600
C562        C  0.04330498  0.15415466  0.67888130     0.32800
C563        C  0.04906270  0.13374173  0.80076720     0.01400
F564        F  0.00207703  0.13153903  0.78283911    -0.12900
F565        F  0.05685392  0.16139921  0.64497549    -0.13500
C566        C  0.04200989  0.14405903  0.84110545     0.16300
C567        C  0.05264816  0.13941631  0.88254172     0.25700
C568        C  0.07079977  0.12451210  0.88449736    -0.40600
C569        C  0.07759470  0.11393456  0.84415672     0.32700
C570        C  0.06666544  0.11829603  0.80289480     0.14400
F571        F  0.02552988  0.15954332  0.84005324    -0.12900
F572        F  0.09504506  0.09956013  0.84441923    -0.13400
F573        F  0.04596447  0.15057074  0.92021928    -0.15700
F574        F  0.07343417  0.10753750  0.76479567    -0.14300
F575        F  0.07502694  0.14972095  0.72645034    -0.14300
F576        F  0.98391810  0.14555178  0.70244753    -0.15700
C577        C  0.12233277  0.04691119  0.16309039     0.14400
C578        C  0.11559052  0.05497614  0.20569750     0.01300
C579        C  0.10230206  0.07420158  0.20743324     0.16300
C580        C  0.09718670  0.08610111  0.16762366     0.25700
C581        C  0.10516155  0.07893289  0.12505186    -0.40600
C582        C  0.11709959  0.05870555  0.12308434     0.32800
C583        C  0.12445768  0.04509246  0.24856388     0.01400
F584        F  0.09502092  0.08194768  0.24812514    -0.12900
F585        F  0.12523682  0.05119113  0.08289295    -0.13500
C586        C  0.13986852  0.05724049  0.27466114     0.16300
C587        C  0.14769527  0.04888988  0.31623753     0.25700
C588        C  0.14005755  0.02831056  0.33290183    -0.40600
C589        C  0.12493690  0.01589815  0.30653013     0.32700
C590        C  0.11738519  0.02411183  0.26434564     0.14400
F591        F  0.14716212  0.07741215  0.25995798    -0.12900
F592        F  0.11752150  0.99584396  0.32166454    -0.13400
F593        F  0.16194842  0.06143561  0.34131982    -0.15700
F594        F  0.10273643  0.01190295  0.23954938    -0.14300
F595        F  0.13528182  0.02844058  0.16047924    -0.12700
F596        F  0.08510178  0.10510927  0.17101458    -0.15700
C597        C  0.21631542  0.09629717  0.96717358     0.14400
C598        C  0.22980483  0.10485258  0.00220147     0.01300
C599        C  0.21980113  0.11702529  0.03733412     0.16300
C600        C  0.19684256  0.12091829  0.03725386     0.25700
C601        C  0.18322961  0.11272868  0.00186642    -0.40600
C602        C  0.19324975  0.10019137  0.96694004     0.32800
C603        C  0.25448017  0.10296181  0.00047330     0.01400
F604        F  0.23244231  0.12595358  0.07102799    -0.12900
F605        F  0.18084734  0.09186491  0.93225277    -0.13500
C606        C  0.26617863  0.11229030  0.96372934     0.16300
C607        C  0.28944115  0.11358950  0.96460722     0.25700
C608        C  0.30162358  0.10550413  0.00232391    -0.40600
C609        C  0.28991572  0.09516585  0.03821465     0.32700
C610        C  0.26655658  0.09395495  0.03728715     0.14400
F611        F  0.25499619  0.12125423  0.92786236    -0.12900
F612        F  0.30093342  0.08697804  0.07504102    -0.13400
F613        F  0.29995008  0.12328331  0.92874653    -0.15700
F614        F  0.25566400  0.08439491  0.07282895    -0.14300
F615        F  0.22551805  0.08422486  0.93306369    -0.14300
F616        F  0.18807455  0.13301978  0.07178226    -0.15700
C617        C  0.99898946  0.38153735  0.24473834     0.14400
C618        C  0.02221133  0.38068346  0.23849895     0.01300
C619        C  0.03590819  0.37344462  0.27448364     0.16300
C620        C  0.02658300  0.36769874  0.31641949     0.25700
C621        C  0.00345035  0.36894213  0.32286515    -0.40600
C622        C  0.98964488  0.37538744  0.28654617     0.32800
C623        C  0.03223109  0.38612556  0.19390918     0.01400
F624        F  0.05828647  0.37154213  0.26865939    -0.12900
F625        F  0.96715091  0.37510783  0.29110739    -0.13500
C626        C  0.04852450  0.40284994  0.19026564     0.16300
C627        C  0.05999916  0.40608914  0.14936690     0.25700
C628        C  0.05522639  0.39273158  0.11136605    -0.40600
C629        C  0.03815505  0.37666262  0.11459187     0.32700
C630        C  0.02680647  0.37338814  0.15554277     0.14400
F631        F  0.05366448  0.41569306  0.22672057    -0.12900
F632        F  0.03348982  0.36297626  0.07916097    -0.13400
F633        F  0.07611152  0.42193952  0.14727409    -0.15700
F634        F  0.01147268  0.35680592  0.15853454    -0.14300
F635        F  0.98543086  0.38842775  0.21041640    -0.14300
F636        F  0.04012783  0.36099926  0.35092864    -0.15700
C637        C  0.12387691  0.48441643  0.75842227     0.14400
C638        C  0.10617867  0.46901345  0.75823813     0.01300
C639        C  0.09546741  0.46421717  0.71690946     0.16300
C640        C  0.10312087  0.47341780  0.67618296     0.25700
C641        C  0.12134653  0.48823469  0.67580340    -0.40600
C642        C  0.13128646  0.49408775  0.71756887     0.32800
C643        C  0.10034797  0.45601047  0.79965828     0.01400
F644        F  0.07792130  0.44991865  0.71578931    -0.12900
F645        F  0.14820184  0.50909252  0.71888988    -0.13500
C646        C  0.09444487  0.46641585  0.84072969     0.16300
C647        C  0.09003638  0.45361037  0.87979946     0.25700
C648        C  0.09115057  0.43019167  0.87810487    -0.40600
C649        C  0.09626606  0.41992360  0.83646493     0.32700
C650        C  0.10108752  0.43265930  0.79802137     0.14400
F651        F  0.09303703  0.48892588  0.84304053    -0.12900
F652        F  0.09810189  0.39746052  0.83342527    -0.13400
F653        F  0.08496345  0.46410971  0.91927798    -0.15700
F654        F  0.10756058  0.42207540  0.75949634    -0.14300
F655        F  0.13464583  0.48933841  0.79779974    -0.14300
F656        F  0.09331614  0.46673149  0.63693255    -0.15700
C657        C  0.10950383  0.28052234  0.03527774     0.14400
C658        C  0.09755697  0.26783062  0.00369409     0.01300
C659        C  0.08491244  0.27860022  0.96993016     0.16300
C660        C  0.08457343  0.30191486  0.96732857     0.25700
C661        C  0.09694754  0.31476172  0.99857745    -0.40600
C662        C  0.10916716  0.30369916  0.03297374     0.32800
C663        C  0.09942221  0.24334991  0.00509694     0.01400
F664        F  0.07338869  0.26651193  0.93882510    -0.12900
F665        F  0.12099131  0.31522670  0.06450391    -0.13500
C666        C  0.08208712  0.23020504  0.02261936     0.16300
C667        C  0.08467373  0.20708954  0.02656711     0.25700
C668        C  0.10467448  0.19675880  0.01269340    -0.40600
C669        C  0.12190378  0.21016878  0.99474281     0.32700
C670        C  0.11930194  0.23320081  0.99127337     0.14400
F671        F  0.06281518  0.23983581  0.03659647    -0.12900
F672        F  0.14138013  0.20108417  0.98043648    -0.13400
F673        F  0.06752689  0.19489235  0.04360645    -0.15700
F674        F  0.13626213  0.24570293  0.97432153    -0.14300
F675        F  0.12168850  0.27036639  0.06835032    -0.14300
F676        F  0.07239282  0.31181016  0.93393562    -0.15700
C677        C  0.25244208  0.37504448  0.97296131     0.14400
C678        C  0.24275362  0.39549247  0.98459527     0.01300
C679        C  0.25659481  0.41368342  0.99466883     0.16300
C680        C  0.27985473  0.41138412  0.99349944     0.25700
C681        C  0.28960972  0.39077042  0.98237778    -0.40600
C682        C  0.27558393  0.37268324  0.97183570     0.32800
C683        C  0.21817247  0.39749069  0.98632428     0.01400
F684        F  0.24755747  0.43366606  0.00556438    -0.12900
F685        F  0.28421715  0.35255412  0.96067579    -0.13500
C686        C  0.20724733  0.40206455  0.02751740     0.16300
C687        C  0.18391497  0.40146557  0.02992584     0.25700
C688        C  0.17116140  0.39626848  0.99107462    -0.40600
C689        C  0.18222542  0.39272959  0.94940690     0.32700
C690        C  0.20546608  0.39326423  0.94717869     0.14400
F691        F  0.21920863  0.40609942  0.06588129    -0.12900
F692        F  0.17060529  0.38856871  0.91064787    -0.13400
F693        F  0.17392121  0.40509279  0.07064764    -0.15700
F694        F  0.21565048  0.38934594  0.90674847    -0.14300
F695        F  0.23941334  0.35711708  0.96376586    -0.14300
F696        F  0.29274777  0.42911682  0.00470593    -0.15700
C697        C  0.89071824  0.08514020  0.57718382     0.14400
C698        C  0.91277751  0.07953996  0.56619737     0.01300
C699        C  0.91804579  0.05725313  0.55703399     0.16300
C700        C  0.90150566  0.04079919  0.55869574     0.25700
C701        C  0.87939407  0.04622431  0.57066406    -0.40600
C702        C  0.87421904  0.06864302  0.57993626     0.32800
C703        C  0.93053720  0.09673356  0.56701840     0.01400
F704        F  0.93925043  0.05145283  0.54612044    -0.12900
F705        F  0.85340594  0.07454921  0.59333275    -0.13500
C706        C  0.94625454  0.09672388  0.60233071     0.16300
C707        C  0.96265960  0.11323872  0.60462473     0.25700
C708        C  0.96424008  0.12989180  0.57067557    -0.40600
C709        C  0.94849635  0.12961341  0.53479612     0.32700
C710        C  0.93164402  0.11338161  0.53344021     0.14400
F711        F  0.94538951  0.08088898  0.63538656    -0.12900
F712        F  0.94973534  0.14454280  0.50012061    -0.13400
F713        F  0.97648336  0.11311611  0.64113844    -0.15700
F714        F  0.91662066  0.11365066  0.49882173    -0.14300
F715        F  0.88532860  0.10655558  0.58666953    -0.14300
F716        F  0.90710979  0.01965681  0.54738461    -0.15700
C717        C  0.60837360  0.08345180  0.39548669     0.14400
C718        C  0.58663677  0.08066629  0.41225194     0.01300
C719        C  0.57992259  0.05967889  0.42796373     0.16300
C720        C  0.59470242  0.04171168  0.42740577     0.25700
C721        C  0.61677555  0.04438905  0.41186023    -0.40600
C722        C  0.62337061  0.06550269  0.39542118     0.32800
C723        C  0.57053117  0.09932500  0.41291589     0.01400
F724        F  0.55886490  0.05657115  0.44372947    -0.12900
F725        F  0.64410138  0.06865384  0.37805713    -0.13500
C726        C  0.55877251  0.10514933  0.37325734     0.16300
C727        C  0.54134896  0.12063318  0.37516279     0.25700
C728        C  0.53564753  0.13069452  0.41664905    -0.40600
C729        C  0.54794171  0.12549383  0.45597777     0.32700
C730        C  0.56518617  0.10979338  0.45418126     0.14400
F731        F  0.56360413  0.09515903  0.33311096    -0.12900
F732        F  0.54249069  0.13478857  0.49649091    -0.13400
F733        F  0.52986333  0.12565099  0.33660134    -0.15700
F734        F  0.57626477  0.10428324  0.49294212    -0.14300
F735        F  0.61507131  0.10356743  0.37936783    -0.14300
F736        F  0.58734181  0.02182396  0.44302635    -0.15700
C737        C  0.77283553  0.02583255  0.49098494     0.14400
C738        C  0.75836439  0.00843504  0.50262655     0.01300
C739        C  0.76591699  0.99163765  0.53194211     0.16300
C740        C  0.78755044  0.99235444  0.54992303     0.25700
C741        C  0.80221617  0.01026218  0.53991895    -0.40600
C742        C  0.79457301  0.02663590  0.50859967     0.32800
C743        C  0.73553579  0.00756777  0.48322246     0.01400
F744        F  0.75228662  0.97441478  0.54310190    -0.12900
F745        F  0.80818097  0.04262987  0.49179147    -0.13500
C746        C  0.73013600  0.99214874  0.44931425     0.16300
C747        C  0.70851431  0.99124585  0.43117586     0.25700
C748        C  0.69185903  0.00653385  0.44515870    -0.40600
C749        C  0.69717958  0.02073103  0.48205697     0.32700
C750        C  0.71883338  0.02156739  0.49994968     0.14400
F751        F  0.74578339  0.97761666  0.43427310    -0.12900
F752        F  0.68124355  0.03301130  0.50290948    -0.13400
F753        F  0.70381931  0.97441934  0.40208214    -0.15700
F754        F  0.72331914  0.03552130  0.53501622    -0.14300
F755        F  0.76613068  0.04172880  0.46098219    -0.14300
F756        F  0.79427983  0.97508112  0.57650839    -0.15700
C757        C  0.10878885  0.93686495  0.41986288     0.14400
C758        C  0.08680653  0.94092752  0.43403204     0.01300
C759        C  0.08127514  0.96189699  0.45147099     0.16300
C760        C  0.09732302  0.97878145  0.45381117     0.25700
C761        C  0.11922505  0.97504264  0.43847339    -0.40600
C762        C  0.12491429  0.95377963  0.42211177     0.32800
C763        C  0.06927725  0.92369494  0.42936331     0.01400
F764        F  0.06014864  0.96609782  0.46557069    -0.12900
F765        F  0.14577647  0.94965519  0.40639119    -0.13500
C766        C  0.06418257  0.90945826  0.46586555     0.16300
C767        C  0.04655271  0.89421049  0.46243780     0.25700
C768        C  0.03351906  0.89312021  0.42252816    -0.40600
C769        C  0.03865842  0.90754062  0.38611129     0.32700
C770        C  0.05652831  0.92249774  0.38935076     0.14400
F771        F  0.07601883  0.91067173  0.50519557    -0.12900
F772        F  0.02653195  0.90711779  0.34716240    -0.13400
F773        F  0.04161895  0.88119404  0.49892818    -0.15700
F774        F  0.06122036  0.93610325  0.35361806    -0.14300
F775        F  0.11447915  0.91667230  0.40293798    -0.14300
F776        F  0.09145594  0.99878676  0.47140727    -0.15700
C777        C  0.91997444  0.90271392  0.48302051     0.14400
C778        C  0.92554334  0.92520133  0.48820253     0.01300
C779        C  0.94727568  0.93235393  0.47848562     0.16300
C780        C  0.96340916  0.91714040  0.46404956     0.25700
C781        C  0.95796193  0.89449050  0.45855530    -0.40600
C782        C  0.93594900  0.88748465  0.46793737     0.32800
C783        C  0.90877854  0.94118963  0.50461946     0.01400
F784        F  0.95287639  0.95410789  0.48332690    -0.12900
F785        F  0.92958878  0.86607670  0.46110861    -0.13500
C786        C  0.90652268  0.94505578  0.55137087     0.16300
C787        C  0.89081950  0.96034351  0.56721733     0.25700
C788        C  0.87729123  0.97228731  0.53635934    -0.40600
C789        C  0.87964647  0.96830653  0.48936705     0.32700
C790        C  0.89517604  0.95275065  0.47370960     0.14400
F791        F  0.91955140  0.93393470  0.58168005    -0.12900
F792        F  0.86745494  0.97995600  0.45845600    -0.13400
F793        F  0.88853650  0.96296784  0.61282869    -0.15700
F794        F  0.89712783  0.94910479  0.42832376    -0.14300
F795        F  0.89897661  0.89556448  0.49232778    -0.14300
F796        F  0.98447877  0.92455535  0.45659925    -0.15700
C797        C  0.06357016  0.61994779  0.59191367     0.14400
C798        C  0.05873882  0.59862334  0.57525880     0.01300
C799        C  0.03727633  0.59406051  0.55854274     0.16300
C800        C  0.02079869  0.61058000  0.55868906     0.25700
C801        C  0.02556581  0.63198017  0.57546722    -0.40600
C802        C  0.04714157  0.63652529  0.59194701     0.32800
C803        C  0.07595047  0.58097195  0.57621462     0.01400
F804        F  0.03227531  0.57353362  0.54231022    -0.12900
F805        F  0.05211798  0.65681628  0.60937894    -0.13500
C806        C  0.07930220  0.56831417  0.61586211     0.16300
C807        C  0.09504517  0.55112131  0.61651754     0.25700
C808        C  0.10780860  0.54637453  0.57755082    -0.40600
C809        C  0.10478616  0.55940871  0.53816957     0.32700
C810        C  0.08885119  0.57650138  0.53744502     0.14400
F811        F  0.06702244  0.57239429  0.65370784    -0.12900
F812        F  0.11657036  0.55497647  0.49987004    -0.13400
F813        F  0.09788985  0.53914424  0.65538138    -0.15700
F814        F  0.08572278  0.58849105  0.49871351    -0.14300
F815        F  0.08419855  0.62463332  0.60839614    -0.14300
F816        F  0.00032909  0.60577148  0.54149907    -0.15700
C817        C  0.01411647  0.74304209  0.53054881     0.14400
C818        C  0.99518236  0.75381871  0.51312577     0.01300
C819        C  0.97445028  0.74320159  0.51623449     0.16300
C820        C  0.97272213  0.72177047  0.53460356     0.25700
C821        C  0.99198672  0.70964077  0.54756937    -0.40600
C822        C  0.01257619  0.72129477  0.54800872     0.32800
C823        C  0.99673200  0.77606126  0.49124795     0.01400
F824        F  0.95571003  0.75378922  0.50182398    -0.12900
F825        F  0.03111134  0.71230310  0.56710362    -0.13500
C826        C  0.99356588  0.77814057  0.44420141     0.16300
C827        C  0.99328852  0.79909131  0.42314728     0.25700
C828        C  0.99542488  0.81883684  0.44920612    -0.40600
C829        C  0.99972754  0.81633279  0.49643604     0.32700
C830        C  0.00031589  0.79526257  0.51709037     0.14400
F831        F  0.99085470  0.75965225  0.41834052    -0.12900
F832        F  0.00301718  0.83446921  0.52304387    -0.13400
F833        F  0.99171418  0.79933636  0.37724501    -0.15700
F834        F  0.00373155  0.79365692  0.56267065    -0.14300
F835        F  0.03417758  0.75353288  0.53032310    -0.14300
F836        F  0.95198073  0.71316824  0.54037351    -0.15700
C837        C  0.42944964  0.89791825  0.57456146     0.14400
C838        C  0.43476974  0.92025543  0.56518121     0.01300
C839        C  0.45669638  0.92571025  0.55255397     0.16300
C840        C  0.47294397  0.90915077  0.54878414     0.25700
C841        C  0.46779487  0.88678135  0.55889413    -0.40600
C842        C  0.44581352  0.88135879  0.57174002     0.32800
C843        C  0.41743762  0.93784820  0.56748994     0.01400
F844        F  0.46247704  0.94721442  0.54442565    -0.12900
F845        F  0.44024064  0.86014454  0.58292974    -0.13500
C846        C  0.40522964  0.94135022  0.60772730     0.16300
C847        C  0.38904759  0.95810769  0.60960168     0.25700
C848        C  0.38507708  0.97174426  0.57158772    -0.40600
C849        C  0.39703802  0.96819369  0.53134293     0.32700
C850        C  0.41306916  0.95134502  0.52923019     0.14400
F851        F  0.40921377  0.92878487  0.64537706    -0.12900
F852        F  0.39309654  0.98102636  0.49405788    -0.13400
F853        F  0.37701209  0.96082665  0.64826193    -0.15700
F854        F  0.42410936  0.94795716  0.48955760    -0.14300
F855        F  0.40831583  0.89208691  0.58609765    -0.14300
F856        F  0.49360967  0.91506273  0.53428338    -0.15700
C857        C  0.58545342  0.95474454  0.49669883     0.14400
C858        C  0.58933039  0.93313330  0.48026302     0.01300
C859        C  0.60787773  0.92918013  0.45233243     0.16300
C860        C  0.62224055  0.94664391  0.44082733     0.25700
C861        C  0.61815649  0.96825016  0.45689750    -0.40600
C862        C  0.59995351  0.97210969  0.48556248     0.32800
C863        C  0.57448147  0.91471313  0.49424085     0.01400
F864        F  0.61224445  0.90838837  0.43683397    -0.12900
F865        F  0.59654603  0.99250543  0.50377525    -0.13500
C866        C  0.56245680  0.90233404  0.46190969     0.16300
C867        C  0.54694687  0.88630899  0.47613580     0.25700
C868        C  0.54320916  0.88263579  0.52283170    -0.40600
C869        C  0.55612394  0.89426833  0.55487069     0.32700
C870        C  0.57162527  0.91009322  0.54068902     0.14400
F871        F  0.56502590  0.90643999  0.41674381    -0.12900
F872        F  0.55390539  0.89026683  0.60009628    -0.13400
F873        F  0.53485305  0.87519622  0.44440563    -0.15700
F874        F  0.58382288  0.92109041  0.57244558    -0.14300
F875        F  0.56749616  0.95902461  0.52336808    -0.14300
F876        F  0.63996873  0.94259174  0.41338379    -0.15700
C877        C  0.41858804  0.60898312  0.41019441     0.14400
C878        C  0.42266146  0.58685696  0.42354451     0.01300
C879        C  0.44421577  0.58089250  0.43808979     0.16300
C880        C  0.46130400  0.59678670  0.43961623     0.25700
C881        C  0.45720863  0.61895708  0.42634147    -0.40600
C882        C  0.43568770  0.62483287  0.41135487     0.32800
C883        C  0.40440658  0.57009623  0.42230542     0.01400
F884        F  0.44881896  0.55955432  0.45019065    -0.12900
F885        F  0.43130796  0.64581647  0.39660225    -0.13500
C886        C  0.39261637  0.56610023  0.38167752     0.16300
C887        C  0.37506462  0.55072074  0.38075793     0.25700
C888        C  0.36926243  0.53879254  0.42013547    -0.40600
C889        C  0.38103673  0.54264399  0.46068620     0.32700
C890        C  0.39840028  0.55824412  0.46186566     0.14400
F891        F  0.39835372  0.57684462  0.34266928    -0.12900
F892        F  0.37582413  0.53109978  0.49903895    -0.13400
F893        F  0.36352563  0.54773023  0.34155425    -0.15700
F894        F  0.40915737  0.56199720  0.50180095    -0.14300
F895        F  0.39791632  0.61533190  0.39642899    -0.14300
F896        F  0.48172356  0.59052746  0.45501811    -0.15700
C897        C  0.47430051  0.73005671  0.48067104     0.14400
C898        C  0.49455769  0.74166137  0.48253409     0.01300
C899        C  0.51416627  0.73071511  0.46968605     0.16300
C900        C  0.51360129  0.70845073  0.45575908     0.25700
C901        C  0.49336561  0.69621512  0.45482726    -0.40600
C902        C  0.47355214  0.70776383  0.46668656     0.32800
C903        C  0.49531197  0.76514141  0.49827369     0.01400
F904        F  0.53403541  0.74153942  0.47131878    -0.12900
F905        F  0.45312544  0.69839558  0.46313388    -0.13500
C906        C  0.49030600  0.77036932  0.54357412     0.16300
C907        C  0.49202039  0.79230830  0.55922054     0.25700
C908        C  0.49970927  0.80958246  0.53024303    -0.40600
C909        C  0.50240297  0.80445128  0.48351681     0.32700
C910        C  0.50072869  0.78244877  0.46807013     0.14400
F911        F  0.48389931  0.75409467  0.57295614    -0.12900
F912        F  0.50609717  0.82071385  0.45223692    -0.13400
F913        F  0.48531511  0.79653407  0.60238551    -0.15700
F914        F  0.50399075  0.77807552  0.42327011    -0.14300
F915        F  0.45498999  0.74056804  0.49144378    -0.14300
F916        F  0.53308263  0.69880574  0.44301253    -0.15700
C917        C  0.90575982  0.46705190  0.44009606     0.14400
C918        C  0.89842965  0.44601118  0.42624700     0.01300
C919        C  0.87627795  0.44324774  0.41197477     0.16300
C920        C  0.86146403  0.46127610  0.41246154     0.25700
C921        C  0.86863756  0.48245966  0.42704636    -0.40600
C922        C  0.89113185  0.48514740  0.44007106     0.32800
C923        C  0.91442745  0.42736527  0.42427890     0.01400
F924        F  0.86913113  0.42316836  0.39678552    -0.12900
F925        F  0.89915801  0.50517903  0.45317317    -0.13500
C926        C  0.91780644  0.41343486  0.46210344     0.16300
C927        C  0.93416202  0.39676341  0.46096700     0.25700
C928        C  0.94753912  0.39389820  0.42198996    -0.40600
C929        C  0.94396544  0.40804179  0.38423793     0.32700
C930        C  0.92748205  0.42445759  0.38531973     0.14400
F931        F  0.90570012  0.41644185  0.50058493    -0.12900
F932        F  0.95645087  0.40622273  0.34612426    -0.13400
F933        F  0.93770600  0.38426493  0.49887003    -0.15700
F934        F  0.92455935  0.43792424  0.34856023    -0.14300
F935        F  0.92725726  0.47009771  0.45330250    -0.14300
F936        F  0.84037426  0.45818065  0.39683772    -0.15700
C937        C  0.90111106  0.56719244  0.51276107     0.14400
C938        C  0.90007479  0.58925644  0.49665413     0.01300
C939        C  0.88235815  0.59560979  0.46798236     0.16300
C940        C  0.86639923  0.57994502  0.45447954     0.25700
C941        C  0.86796769  0.55778825  0.46952350    -0.40600
C942        C  0.88497420  0.55169224  0.49976833     0.32800
C943        C  0.91717424  0.60564794  0.51085274     0.01400
F944        F  0.88042596  0.61699895  0.45345818    -0.12900
F945        F  0.88571750  0.53080933  0.51734376    -0.13500
C946        C  0.93001228  0.61722208  0.47841399     0.16300
C947        C  0.94660834  0.63216727  0.49236770     0.25700
C948        C  0.95070116  0.63561988  0.53900217    -0.40600
C949        C  0.93749788  0.62432208  0.57122764     0.32700
C950        C  0.92096061  0.60950458  0.55729839     0.14400
F951        F  0.92693720  0.61353273  0.43327291    -0.12900
F952        F  0.94011431  0.62802877  0.61643692    -0.13400
F953        F  0.95911932  0.64266301  0.46033936    -0.15700
F954        F  0.90837677  0.59909384  0.58934165    -0.14300
F955        F  0.91798866  0.56055172  0.54051135    -0.14300
F956        F  0.84963797  0.58627182  0.42611936    -0.15700
C957        C  0.57262634  0.45578199  0.57019677     0.14400
C958        C  0.57549973  0.43658639  0.59687628     0.01300
C959        C  0.59519972  0.43388724  0.62229396     0.16300
C960        C  0.61204200  0.45008045  0.62020217     0.25700
C961        C  0.60913786  0.46922802  0.59319487    -0.40600
C962        C  0.58922315  0.47205763  0.56868073     0.32800
C963        C  0.55836827  0.41893788  0.59550726     0.01400
F964        F  0.59819878  0.41546704  0.64848423    -0.12900
F965        F  0.58603597  0.49043420  0.54247665    -0.13500
C966        C  0.55628675  0.40581357  0.55638180     0.16300
C967        C  0.53915666  0.39015060  0.55285660     0.25700
C968        C  0.52373848  0.38736352  0.58848830    -0.40600
C969        C  0.52592086  0.40045129  0.62788963     0.32700
C970        C  0.54318628  0.41610729  0.63140964     0.14400
F971        F  0.57072972  0.40847431  0.52122682    -0.12900
F972        F  0.51154279  0.39788953  0.66317478    -0.13400
F973        F  0.53714261  0.37830553  0.51382166    -0.15700
F974        F  0.54480355  0.42884925  0.66932129    -0.14300
F975        F  0.55370661  0.45866667  0.54541804    -0.14300
F976        F  0.63092693  0.44732623  0.64514454    -0.15700
C977        C  0.58659660  0.55611087  0.48825828     0.14400
C978        C  0.57989648  0.57406645  0.51573002     0.01300
C979        C  0.58884278  0.57598998  0.55987120     0.16300
C980        C  0.60370368  0.56001865  0.57657157     0.25700
C981        C  0.61048005  0.54230220  0.54894680    -0.40600
C982        C  0.60200439  0.54050981  0.50459879     0.32800
C983        C  0.56332012  0.59052178  0.49882780     0.01400
F984        F  0.58346700  0.59355391  0.58660526    -0.12900
F985        F  0.60814707  0.52326521  0.47768615    -0.13500
C986        C  0.54413740  0.59534938  0.52460630     0.16300
C987        C  0.52854330  0.61088239  0.50887091     0.25700
C988        C  0.53154693  0.62136590  0.46666632    -0.40600
C989        C  0.55050208  0.61649807  0.44059603     0.32700
C990        C  0.56645581  0.60144197  0.45682601     0.14400
F991        F  0.54019676  0.58458896  0.56450738    -0.12900
F992        F  0.55370903  0.62657665  0.39970450    -0.13400
F993        F  0.51018461  0.61528658  0.53425106    -0.15700
F994        F  0.58513583  0.59781323  0.43186862    -0.14300
F995        F  0.57777058  0.55332880  0.44607963    -0.14300
F996        F  0.61184643  0.56209888  0.61948199    -0.15700
C997        C  0.72089907  0.52565673  0.54811210     0.14400
C998        C  0.72861821  0.50927481  0.51822820     0.01300
C999        C  0.71454235  0.49134055  0.50764122     0.16300
C1000       C  0.69315964  0.48968911  0.52677207     0.25700
C1001       C  0.68541835  0.50581473  0.55807586    -0.40600
C1002       C  0.69954572  0.52423146  0.56697406     0.32800
C1003       C  0.75104767  0.51149716  0.49700922     0.01400
F1004       F  0.72140629  0.47545730  0.47809031    -0.12900
F1005       F  0.69237825  0.54157002  0.59256071    -0.13500
C1006       C  0.77020788  0.51240662  0.52432008     0.16300
C1007       C  0.79127984  0.51521149  0.50474379     0.25700
C1008       C  0.79385969  0.51809035  0.45712820    -0.40600
C1009       C  0.77450843  0.51600349  0.42968672     0.32700
C1010       C  0.75342833  0.51297346  0.44954032     0.14400
F1011       F  0.76855895  0.51018248  0.57020789    -0.12900
F1012       F  0.77566314  0.51557052  0.38368831    -0.13400
F1013       F  0.80932674  0.51485763  0.53273372    -0.15700
F1014       F  0.73521037  0.51163094  0.42217668    -0.14300
F1015       F  0.73375318  0.54366845  0.55761520    -0.14300
F1016       F  0.67982704  0.47309899  0.51162946    -0.15700
C1017       C  0.50974164  0.61945737  0.26042206     0.14400
C1018       C  0.53069611  0.62726410  0.24629470     0.01300
C1019       C  0.54185851  0.64331796  0.27246621     0.16300
C1020       C  0.53240985  0.65122047  0.31265590     0.25700
C1021       C  0.51181552  0.64289087  0.32769427    -0.40600
C1022       C  0.50043696  0.62708850  0.30114438     0.32800
C1023       C  0.54080577  0.61965887  0.20333300     0.01400
F1024       F  0.56195826  0.65136511  0.25891276    -0.12900
F1025       F  0.48030514  0.61911082  0.31466354    -0.13500
C1026       C  0.53145006  0.62616842  0.16161376     0.16300
C1027       C  0.54333267  0.62325365  0.12120282     0.25700
C1028       C  0.56489919  0.61390487  0.12204154    -0.40600
C1029       C  0.57335460  0.60563723  0.16357853     0.32700
C1030       C  0.56135678  0.60848982  0.20388223     0.14400
F1031       F  0.51157580  0.63696752  0.16042774    -0.12900
F1032       F  0.59370449  0.59577962  0.16566413    -0.13400
F1033       F  0.53438772  0.63119597  0.08189663    -0.15700
F1034       F  0.57028157  0.60133382  0.24384706    -0.14300
F1035       F  0.49856111  0.60417353  0.23524778    -0.14300
F1036       F  0.54384878  0.66627919  0.33791016    -0.15700
C1037       C  0.60935102  0.52536822  0.75535936     0.14400
C1038       C  0.61961579  0.54505005  0.77008394     0.01300
C1039       C  0.63721850  0.55419303  0.74474811     0.16300
C1040       C  0.64406925  0.54421244  0.70435429     0.25700
C1041       C  0.63335023  0.52491177  0.68857054    -0.40600
C1042       C  0.61608335  0.51540901  0.71466015     0.32800
C1043       C  0.61188454  0.55657299  0.81130825     0.01400
F1044       F  0.64755657  0.57304635  0.75893641    -0.12900
F1045       F  0.60569975  0.49653949  0.70071635    -0.13500
C1046       C  0.61604123  0.54747483  0.85445596     0.16300
C1047       C  0.61162779  0.55986935  0.89354941     0.25700
C1048       C  0.60296420  0.58164877  0.89002262    -0.40600
C1049       C  0.59777461  0.59021921  0.84653994     0.32700
C1050       C  0.60218607  0.57773419  0.80759032     0.14400
F1051       F  0.62565770  0.52712133  0.85862821    -0.12900
F1052       F  0.58939192  0.61105868  0.84137646    -0.13400
F1053       F  0.61713211  0.55097945  0.93460929    -0.15700
F1054       F  0.59774089  0.58660685  0.76597088    -0.14300
F1055       F  0.59242022  0.51621222  0.77971110    -0.14300
F1056       F  0.66036210  0.55413511  0.67946325    -0.15700
C1057       C  0.64412080  0.97577769  0.23943309     0.14400
C1058       C  0.62533942  0.96179322  0.23733360     0.01300
C1059       C  0.61213862  0.95910101  0.27634216     0.16300
C1060       C  0.61786718  0.96963045  0.31699512     0.25700
C1061       C  0.63667195  0.98378027  0.31943967    -0.40600
C1062       C  0.64949945  0.98696510  0.27971180     0.32800
C1063       C  0.61966006  0.94970926  0.19484445     0.01400
F1064       F  0.59355688  0.94617420  0.27516261    -0.12900
F1065       F  0.66710944  0.00115625  0.27935977    -0.13500
C1066       C  0.61686296  0.92648252  0.19547467     0.16300
C1067       C  0.61197515  0.91496913  0.15544367     0.25700
C1068       C  0.61003248  0.92640308  0.11359182    -0.40600
C1069       C  0.61249739  0.94972586  0.11319072     0.32700
C1070       C  0.61716193  0.96123700  0.15342298     0.14400
F1071       F  0.61982742  0.91474621  0.23462225    -0.12900
F1072       F  0.61091302  0.96143669  0.07371600    -0.13400
F1073       F  0.61029534  0.89245417  0.15753438    -0.15700
F1074       F  0.61932575  0.98371263  0.15185278    -0.14300
F1075       F  0.65761328  0.97824315  0.20268880    -0.14300
F1076       F  0.60521851  0.96514055  0.35407585    -0.15700
C1077       C  0.54375452  0.88268598  0.82444293     0.14400
C1078       C  0.55480661  0.88426267  0.78245318     0.01300
C1079       C  0.57715955  0.89132843  0.78167121     0.16300
C1080       C  0.58862106  0.89560807  0.82228444     0.25700
C1081       C  0.57785827  0.89313783  0.86467369    -0.40600
C1082       C  0.55511162  0.88709688  0.86511209     0.32800
C1083       C  0.54361172  0.87691167  0.73992529     0.01400
F1084       F  0.58806712  0.89359922  0.74144371    -0.12900
F1085       F  0.54409523  0.88413707  0.90500860    -0.13500
C1086       C  0.52372096  0.88694806  0.72488512     0.16300
C1087       C  0.51339684  0.87981125  0.68464054     0.25700
C1088       C  0.52270820  0.86241393  0.65896629    -0.40600
C1089       C  0.54252486  0.85234624  0.67421418     0.32700
C1090       C  0.55279838  0.85945365  0.71435449     0.14400
F1091       F  0.51460396  0.90401362  0.74858270    -0.12900
F1092       F  0.55261252  0.83637832  0.64903087    -0.13400
F1093       F  0.49432821  0.88995143  0.67067106    -0.15700
F1094       F  0.57181102  0.84923333  0.72833575    -0.14300
F1095       F  0.52227304  0.87558919  0.82630788    -0.14300
F1096       F  0.61047600  0.90143157  0.81998832    -0.15700
C1097       C  0.58751514  0.73216538  0.97676941     0.14400
C1098       C  0.60502692  0.74436623  0.99624785     0.01300
C1099       C  0.62268053  0.73310385  0.01755126     0.16300
C1100       C  0.62290060  0.70991748  0.01940941     0.25700
C1101       C  0.60539136  0.69750051  0.99988792    -0.40600
C1102       C  0.58773243  0.70888661  0.97830940     0.32800
C1103       C  0.60549469  0.76885214  0.99324608     0.01400
F1104       F  0.63975095  0.74464972  0.03667911    -0.12900
F1105       F  0.57063154  0.69755747  0.95884441    -0.13500
C1106       C  0.58960344  0.78174139  0.01615930     0.16300
C1107       C  0.59121688  0.80496864  0.01588277     0.25700
C1108       C  0.60879722  0.81562997  0.99256377    -0.40600
C1109       C  0.62428604  0.80253198  0.96850153     0.32700
C1110       C  0.62262312  0.77939838  0.96895829     0.14400
F1111       F  0.57291734  0.77179440  0.03990866    -0.12900
F1112       F  0.64118481  0.81200058  0.94455307    -0.13400
F1113       F  0.57574993  0.81691948  0.03896837    -0.15700
F1114       F  0.63782696  0.76719285  0.94567254    -0.14300
F1115       F  0.57046512  0.74281195  0.95543093    -0.14300
F1116       F  0.64055134  0.69968374  0.03954488    -0.15700
C1117       C  0.86890794  0.96838392  0.83969742     0.14400
C1118       C  0.87152095  0.95810138  0.79728444     0.01300
C1119       C  0.88019245  0.93644751  0.79527023     0.16300
C1120       C  0.88543116  0.92488135  0.83523239     0.25700
C1121       C  0.88199429  0.93479912  0.87806296    -0.40600
C1122       C  0.87418720  0.95691539  0.87975236     0.32800
C1123       C  0.86471471  0.96974000  0.75512618     0.01400
F1124       F  0.88325431  0.92636995  0.75448008    -0.12900
F1125       F  0.87065680  0.96719157  0.92017062    -0.13500
C1126       C  0.87580502  0.98915992  0.74113863     0.16300
C1127       C  0.86990145  0.99969710  0.70031462     0.25700
C1128       C  0.85269440  0.99104233  0.67302172    -0.40600
C1129       C  0.84134999  0.97175033  0.68757385     0.32700
C1130       C  0.84730616  0.96122854  0.72832900     0.14400
F1131       F  0.89279028  0.99752500  0.76645605    -0.12900
F1132       F  0.82523994  0.96241613  0.66131185    -0.13400
F1133       F  0.88104567  0.01834162  0.68742138    -0.15700
F1134       F  0.83620451  0.94258512  0.74152637    -0.14300
F1135       F  0.86023484  0.98919492  0.84241087    -0.14300
F1136       F  0.89314072  0.90371463  0.83185056    -0.15700
C1137       C  0.95126992  0.88418282  0.15642018     0.14400
C1138       C  0.94547474  0.89591601  0.19592776     0.01300
C1139       C  0.92863345  0.91220664  0.19337479     0.16300
C1140       C  0.91683732  0.91560093  0.15274027     0.25700
C1141       C  0.92214361  0.90318652  0.11374499    -0.40600
C1142       C  0.93998161  0.88801346  0.11565686     0.32800
C1143       C  0.95579503  0.88970367  0.24011950     0.01400
F1144       F  0.92320967  0.92440168  0.23054659    -0.12900
F1145       F  0.94533065  0.87538656  0.07904416    -0.13500
C1146       C  0.97914125  0.88806361  0.24443859     0.16300
C1147       C  0.98869456  0.88001705  0.28470124     0.25700
C1148       C  0.97514137  0.87425064  0.32169410    -0.40600
C1149       C  0.95190449  0.87614677  0.31787596     0.32700
C1150       C  0.94226092  0.88356442  0.27723787     0.14400
F1151       F  0.99269409  0.89422766  0.20961559    -0.12900
F1152       F  0.93855798  0.87058371  0.35344043    -0.13400
F1153       F  0.01114159  0.87750189  0.28732005    -0.15700
F1154       F  0.91968221  0.88403392  0.27368247    -0.14300
F1155       F  0.96679591  0.86776176  0.15794152    -0.14300
F1156       F  0.89988908  0.93057222  0.15187641    -0.15700
C1157       C  0.77111700  0.91110997  0.03368260     0.14400
C1158       C  0.75897349  0.89887752  0.00149394     0.01300
C1159       C  0.77032343  0.88572409  0.96979038     0.16300
C1160       C  0.79355712  0.88491627  0.96991934     0.25700
C1161       C  0.80590905  0.89714621  0.00221034    -0.40600
C1162       C  0.79440281  0.91025907  0.03412544     0.32800
C1163       C  0.73441588  0.89946538  0.00118212     0.01400
F1164       F  0.75883270  0.87330940  0.93913854    -0.12900
F1165       F  0.80559954  0.92226918  0.06583416    -0.13500
C1166       C  0.72291509  0.90705339  0.96247194     0.16300
C1167       C  0.69965901  0.90619128  0.96087453     0.25700
C1168       C  0.68757776  0.89737627  0.99777089    -0.40600
C1169       C  0.69916046  0.89048024  0.03717873     0.32700
C1170       C  0.72240122  0.89151393  0.03879021     0.14400
F1171       F  0.73428078  0.91499008  0.92591366    -0.12900
F1172       F  0.68804842  0.88257552  0.07410918    -0.13400
F1173       F  0.68907106  0.91318563  0.92253800    -0.15700
F1174       F  0.73324339  0.88393658  0.07640010    -0.14300
F1175       F  0.76039121  0.92408349  0.06437287    -0.14300
F1176       F  0.80385159  0.87210578  0.93831917    -0.15700
C1177       C  0.94832441  0.63425871  0.84084617     0.14400
C1178       C  0.93796262  0.63427773  0.79798696     0.01300
C1179       C  0.91563099  0.62746508  0.79442142     0.16300
C1180       C  0.90335862  0.62217061  0.83342964     0.25700
C1181       C  0.91316204  0.62386835  0.87694488    -0.40600
C1182       C  0.93607982  0.62904724  0.88002023     0.32800
C1183       C  0.94993924  0.64255253  0.75724185     0.01400
F1184       F  0.90550241  0.62660151  0.75309425    -0.12900
F1185       F  0.94642559  0.63030837  0.92106692    -0.13500
C1186       C  0.96849240  0.63112340  0.74016030     0.16300
C1187       C  0.97893785  0.63838847  0.70017710     0.25700
C1188       C  0.97088442  0.65714355  0.67632698    -0.40600
C1189       C  0.95275400  0.66903876  0.69457376     0.32700
C1190       C  0.94246655  0.66182862  0.73473236     0.14400
F1191       F  0.97604301  0.61249914  0.76144204    -0.12900
F1192       F  0.94415558  0.68695180  0.67242144    -0.13400
F1193       F  0.99690520  0.62697526  0.68472695    -0.15700
F1194       F  0.92493532  0.67351325  0.75143313    -0.14300
F1195       F  0.96996539  0.64059197  0.84505544    -0.14300
F1196       F  0.88159123  0.61639282  0.82855279    -0.15700
C1197       C  0.86780375  0.59338048  0.20144766     0.14400
C1198       C  0.86936383  0.57010966  0.20211651     0.01300
C1199       C  0.87553585  0.55884791  0.16227929     0.16300
C1200       C  0.87928857  0.57073858  0.12180045     0.25700
C1201       C  0.87693258  0.59408966  0.12072533    -0.40600
C1202       C  0.87159120  0.60526229  0.16138336     0.32800
C1203       C  0.86380478  0.55800652  0.24454222     0.01400
F1204       F  0.87779316  0.53637469  0.16256733    -0.12900
F1205       F  0.86888199  0.62768439  0.16218294    -0.13500
C1206       C  0.84469203  0.54454328  0.24705855     0.16300
C1207       C  0.83776315  0.53563481  0.28892394     0.25700
C1208       C  0.84967767  0.54036294  0.32922614    -0.40600
C1209       C  0.86888121  0.55395028  0.32610589     0.32700
C1210       C  0.87603452  0.56224162  0.28420050     0.14400
F1211       F  0.83224457  0.54076100  0.20922592    -0.12900
F1212       F  0.88027383  0.56042393  0.36366559    -0.13400
F1213       F  0.81940167  0.52242905  0.28982645    -0.15700
F1214       F  0.89463647  0.57513347  0.28250988    -0.14300
F1215       F  0.86161624  0.60460026  0.23941737    -0.14300
F1216       F  0.88482058  0.55936720  0.08362636    -0.15700
C1217       C  0.87352955  0.78610309  0.02973989     0.14400
C1218       C  0.88746707  0.77522462  0.99883522     0.01300
C1219       C  0.90079902  0.78771469  0.96902508     0.16300
C1220       C  0.90001448  0.81098130  0.96981386     0.25700
C1221       C  0.88566469  0.82203773  0.00025086    -0.40600
C1222       C  0.87258069  0.80927303  0.03052638     0.32800
C1223       C  0.88685469  0.75079951  0.99628243     0.01400
F1224       F  0.91440070  0.77734740  0.93892947    -0.12900
F1225       F  0.85841533  0.81909260  0.06032438    -0.13500
C1226       C  0.87403096  0.74051704  0.96251325     0.16300
C1227       C  0.87122716  0.71746233  0.96268626     0.25700
C1228       C  0.88142720  0.70421830  0.99657648    -0.40600
C1229       C  0.89466024  0.71467138  0.03001527     0.32700
C1230       C  0.89724609  0.73781432  0.02988610     0.14400
F1231       F  0.86359167  0.75294647  0.93019688    -0.12900
F1232       F  0.90459782  0.70265453  0.06359518    -0.13400
F1233       F  0.85826579  0.70821477  0.92988500    -0.15700
F1234       F  0.90956687  0.74765203  0.06300417    -0.14300
F1235       F  0.86028297  0.77417945  0.05828489    -0.14300
F1236       F  0.91310986  0.82259508  0.94047498    -0.15700
C1237       C  0.76379545  0.61065604  0.96382277     0.14400
C1238       C  0.75232048  0.61780530  0.00284421     0.01300
C1239       C  0.76439474  0.62688423  0.03924620     0.16300
C1240       C  0.78748251  0.62936310  0.03625082     0.25700
C1241       C  0.79897938  0.62283701  0.99670057    -0.40600
C1242       C  0.78694670  0.61315208  0.96072418     0.32800
C1243       C  0.72766765  0.61756106  0.00401069     0.01400
F1244       F  0.75373509  0.63416293  0.07710579    -0.12900
F1245       F  0.79741975  0.60679169  0.92197557    -0.13500
C1246       C  0.71600702  0.60681651  0.03931900     0.16300
C1247       C  0.69266794  0.60754409  0.04072666     0.25700
C1248       C  0.68065611  0.61910752  0.00682595    -0.40600
C1249       C  0.69251029  0.62972622  0.97145677     0.32700
C1250       C  0.71570187  0.62903368  0.97027743     0.14400
F1251       F  0.72722158  0.59555264  0.07231965    -0.12900
F1252       F  0.68176948  0.64119608  0.93809131    -0.13400
F1253       F  0.68192621  0.59698269  0.07526172    -0.15700
F1254       F  0.72655227  0.64024579  0.93674023    -0.14300
F1255       F  0.75248039  0.60151802  0.92844130    -0.14300
F1256       F  0.79858407  0.63816277  0.07226037    -0.15700
loop_ 
_geom_bond_atom_site_label_1 
_geom_bond_atom_site_label_2 
_geom_bond_distance 
_geom_bond_site_symmetry_2 
_ccdc_geom_bond_type 
O1            C4   1.268       .  A
O1           Cd6   2.488       .  S
C2           O11   1.266       .  A
C2            O7   1.266       .  A
C2         C1181   1.486       .  S
O3            C9   1.265       .  A
O3           Cd6   2.439       .  S
C4           O12   1.263   1_556  A
C4         C1241   1.478       .  S
C5           O10   1.264       .  A
C5            O8   1.267       .  A
C5         C1201   1.484       .  S
Cd6          O13   2.475   1_556  S
Cd6          O12   2.422   1_556  S
Cd6          O11   2.463       .  S
Cd6           O7   2.457       .  S
Cd6          O10   2.428   1_556  S
Cd6           O8   2.488   1_556  S
C9           O13   1.267   1_556  A
C9         C1228   1.483       .  S
O14          C17   1.268       .  A
O14         Cd19   2.463       .  S
C15          O24   1.265       .  A
C15          O20   1.265       .  A
C15        C1121   1.481       .  S
O16          C22   1.268       .  A
O16         Cd19   2.462   1_554  S
C17          O25   1.265   1_556  A
C17        C1221   1.481   1_556  S
C18          O23   1.266       .  A
C18          O21   1.265       .  A
C18        C1141   1.476       .  S
Cd19         O26   2.417       .  S
Cd19         O25   2.422   1_556  S
Cd19         O24   2.444       .  S
Cd19         O20   2.447       .  S
Cd19         O23   2.466   1_556  S
Cd19         O21   2.428   1_556  S
C22          O26   1.263   1_554  A
C22        C1161   1.479       .  S
O27          C30   1.264   1_554  A
O27         Cd32   2.420   1_554  S
C28          O37   1.267       .  A
C28          O33   1.266       .  A
C28        C1081   1.489       .  S
O29          C35   1.267   1_554  A
O29         Cd32   2.466   1_554  S
C30          O38   1.269       .  A
C30        C1168   1.476       .  S
C31          O36   1.265       .  A
C31          O34   1.267       .  A
C31        C1068   1.485       .  S
Cd32         O39   2.423       .  S
Cd32         O38   2.462       .  S
Cd32         O37   2.469       .  S
Cd32         O33   2.467       .  S
Cd32         O36   2.445   1_556  S
Cd32         O34   2.466   1_556  S
C35          O39   1.264       .  A
C35        C1108   1.481       .  S
O40          C43   1.266       .  A
O40         Cd45   2.457   1_556  S
C41          O50   1.264       .  A
C41          O46   1.268   1_554  A
C41        C1101   1.481   1_554  S
O42          C48   1.266       .  A
O42         Cd45   2.452       .  S
C43          O51   1.265       .  A
C43        C1048   1.482       .  S
C44          O49   1.269       .  A
C44          O47   1.263   1_554  A
C44        C1248   1.481       .  S
Cd45         O52   2.454       .  S
Cd45         O51   2.437   1_554  S
Cd45         O50   2.431       .  S
Cd45         O46   2.476   1_554  S
Cd45         O49   2.481       .  S
Cd45         O47   2.399   1_554  S
C48          O52   1.266       .  A
C48        C1028   1.481       .  S
C53          C54   1.553       .  S
C53          C59   1.546       .  S
C53          C57   1.539       .  S
C53        C1001   1.541       .  S
C54          H61   1.081       .  S
C54          C55   1.370       .  D
C55          C56   1.531       .  S
C55         C961   1.477       .  S
C56          C60   1.531       .  S
C56          C58   1.527       .  S
C56          H62   1.111       .  S
C57          H63   1.087       .  S
C57          C58   1.360       .  D
C58         C981   1.474       .  S
C59          H64   1.086       .  S
C59          C60   1.367       .  D
C60        C1041   1.480       .  S
C65          C66   1.538       .  S
C65          C71   1.554       .  S
C65          C69   1.542       .  S
C65        C1008   1.542       .  S
C66          H73   1.086       .  S
C66          C67   1.365       .  D
C67          C68   1.535       .  S
C67         C921   1.494       .  S
C68          C72   1.538       .  S
C68          C70   1.534       .  S
C68          H74   1.106       .  S
C69          H75   1.086       .  S
C69          C70   1.360       .  D
C70         C941   1.473       .  S
C71          H76   1.080       .  S
C71          C72   1.376       .  D
C72        C1208   1.498       .  S
C77          C78   1.553       .  S
C77          C83   1.543       .  S
C77          C81   1.545       .  S
C77         C901   1.547       .  S
C78          H85   1.078       .  S
C78          C79   1.371       .  D
C79          C80   1.533       .  S
C79         C881   1.489       .  S
C80          C84   1.527       .  S
C80          C82   1.530       .  S
C80          H86   1.111       .  S
C81          H87   1.086       .  S
C81          C82   1.364       .  D
C82         C988   1.474       .  S
C83          H88   1.086       .  S
C83          C84   1.365       .  D
C84        C1021   1.477       .  S
C89          C90   1.539       .  S
C89          C95   1.551       .  S
C89          C93   1.547       .  S
C89         C908   1.543       .  S
C90          H97   1.085       .  S
C90          C91   1.370       .  D
C91          C92   1.535       .  S
C91         C841   1.491       .  S
C92          C96   1.528       .  S
C92          C94   1.534       .  S
C92          H98   1.109       .  S
C93          H99   1.085       .  S
C93          C94   1.365       .  D
C94         C868   1.481       .  S
C95         H100   1.084       .  S
C95          C96   1.368       .  D
C96        C1088   1.486       .  S
C101        C102   1.547   1_655  S
C101        C107   1.540       .  S
C101        C105   1.549       .  S
C101        C821   1.542       .  S
C102        H109   1.083       .  S
C102        C103   1.368       .  D
C103        C104   1.535   1_455  S
C103        C801   1.487       .  S
C104        C108   1.536       .  S
C104        C106   1.533       .  S
C104        H110   1.109       .  S
C105        H111   1.084       .  S
C105        C106   1.365       .  D
C106        C948   1.485       .  S
C107        H112   1.086       .  S
C107        C108   1.369       .  D
C108       C1188   1.490       .  S
C113        C114   1.540   1_655  S
C113        C119   1.551       .  S
C113        C117   1.543       .  S
C113        C828   1.546       .  S
C114        H121   1.086       .  S
C114        C115   1.368       .  D
C115        C116   1.539   1_455  S
C115        C768   1.492       .  S
C116        C120   1.527       .  S
C116        C118   1.539       .  S
C116        H122   1.109       .  S
C117        H123   1.085       .  S
C117        C118   1.369       .  D
C118        C781   1.491       .  S
C119        H124   1.078       .  S
C119        C120   1.363       .  D
C120       C1148   1.472       .  S
C125        C126   1.546       .  S
C125        C131   1.548   1_545  S
C125        C129   1.534   1_545  S
C125        C748   1.542       .  S
C126        H133   1.084       .  S
C126        C127   1.369       .  D
C127        C128   1.541       .  S
C127        C721   1.498       .  S
C128        C132   1.540   1_545  S
C128        C130   1.534   1_545  S
C128        H134   1.107   1_545  S
C129        H135   1.087       .  S
C129        C130   1.360       .  D
C130        C861   1.473       .  S
C131        H136   1.081       .  S
C131        C132   1.373       .  D
C132       C1061   1.498       .  S
C137        C138   1.551       .  S
C137        C143   1.543       .  S
C137        C141   1.540   1_545  S
C137        C741   1.545       .  S
C138        H145   1.078       .  S
C138        C139   1.370       .  D
C139        C140   1.537       .  S
C139        C701   1.495       .  S
C140        C144   1.535       .  S
C140        C142   1.534   1_545  S
C140        H146   1.108       .  S
C141        H147   1.086       .  S
C141        C142   1.366       .  D
C142        C788   1.488       .  S
C143        H148   1.086       .  S
C143        C144   1.366       .  D
C144       C1128   1.484   1_545  S
O149        C152   1.268       .  A
O149       Cd154   2.460   1_554  S
C150        O159   1.264       .  A
C150        O155   1.269   1_556  A
C150        C688   1.483       .  S
O151        C157   1.269       .  A
O151       Cd154   2.495       .  S
C152        O160   1.265       .  A
C152        C628   1.478       .  S
C153        O158   1.267       .  A
C153        O156   1.266       .  A
C153        C648   1.481       .  S
Cd154       O161   2.421   1_556  S
Cd154       O160   2.438   1_556  S
Cd154       O159   2.421       .  S
Cd154       O155   2.485   1_556  S
Cd154       O158   2.431       .  S
Cd154       O156   2.474       .  S
C157        O161   1.264   1_556  A
C157        C661   1.486       .  S
O162        C165   1.266       .  A
O162       Cd167   2.487       .  S
C163        O172   1.265   1_554  A
C163        O168   1.268       .  A
C163        C668   1.488       .  S
O164        C170   1.269   1_556  A
O164       Cd167   2.486   1_556  S
C165        O173   1.266       .  A
C165        C581   1.492       .  S
C166        O171   1.266       .  A
C166        O169   1.265       .  A
C166        C568   1.488       .  S
Cd167       O174   2.436       .  S
Cd167       O173   2.498       .  S
Cd167       O172   2.444   1_554  S
Cd167       O168   2.489       .  S
Cd167       O171   2.482   1_554  S
Cd167       O169   2.474   1_554  S
C170        O174   1.266       .  A
C170        C601   1.488       .  S
O175        C178   1.267   1_556  A
O175       Cd180   2.480   1_556  S
C176        O185   1.267       .  A
C176        O181   1.265       .  A
C176        C508   1.486       .  S
O177        C183   1.266       .  A
O177       Cd180   2.448       .  S
C178        O186   1.263       .  A
C178        C548   1.478       .  S
C179        O184   1.269       .  A
C179        O182   1.264   1_554  A
C179        C608   1.487       .  S
Cd180       O187   2.469       .  S
Cd180       O186   2.439       .  S
Cd180       O185   2.473   1_554  S
Cd180       O181   2.450   1_554  S
Cd180       O184   2.498       .  S
Cd180       O182   2.435   1_554  S
C183        O187   1.265       .  A
C183        C521   1.480       .  S
O188        C191   1.265       .  A
O188       Cd193   2.458       .  S
C189        O198   1.264       .  A
C189        O194   1.268       .  A
C189        C681   1.483       .  S
O190        C196   1.268       .  A
O190       Cd193   2.499   1_554  S
C191        O199   1.266       .  A
C191        C461   1.487       .  S
C192        O197   1.263       .  A
C192        O195   1.268       .  A
C192        C481   1.477       .  S
Cd193       O200   2.422       .  S
Cd193       O199   2.491       .  S
Cd193       O198   2.430       .  S
Cd193       O194   2.489       .  S
Cd193       O197   2.434   1_556  S
Cd193       O195   2.507   1_556  S
C196        O200   1.262   1_554  A
C196        C541   1.484       .  S
C201        C202   1.559       .  S
C201        C207   1.550       .  S
C201        C205   1.543       .  S
C201        C441   1.556       .  S
C202        H209   1.077       .  S
C202        C203   1.371       .  D
C203        C204   1.531       .  S
C203        C641   1.492       .  S
C204        C208   1.531       .  S
C204        C206   1.530       .  S
C204        H210   1.111       .  S
C205        H211   1.086       .  S
C205        C206   1.365       .  D
C206        C421   1.480       .  S
C207        H212   1.086       .  S
C207        C208   1.369       .  D
C208        C808   1.487       .  S
C213        C214   1.542       .  S
C213        C219   1.549       .  S
C213        C217   1.553       .  S
C213        C448   1.554       .  S
C214        H221   1.086       .  S
C214        C215   1.368       .  D
C215        C216   1.531       .  S
C215        C488   1.484       .  S
C216        C220   1.533       .  S
C216        C218   1.535       .  S
C216        H222   1.111       .  S
C217        H223   1.085       .  S
C217        C218   1.372       .  D
C218        C401   1.490       .  S
C219        H224   1.083       .  S
C219        C220   1.367       .  D
C220        C888   1.480       .  S
C225        C226   1.553       .  S
C225        C231   1.541       .  S
C225        C229   1.543       .  S
C225        C381   1.544       .  S
C226        H233   1.079       .  S
C226        C227   1.371       .  D
C227        C228   1.533       .  S
C227        C528   1.488       .  S
C228        C232   1.533       .  S
C228        C230   1.536       .  S
C228        H234   1.110       .  S
C229        H235   1.086       .  S
C229        C230   1.364       .  D
C230        C368   1.484       .  S
C231        H236   1.087       .  S
C231        C232   1.364       .  D
C232        C728   1.480       .  S
C237        C238   1.552       .  S
C237        C243   1.541       .  S
C237        C241   1.538       .  S
C237        C388   1.543       .  S
C238        H245   1.082       .  S
C238        C239   1.370       .  D
C239        C240   1.536       .  S
C239        C468   1.492       .  S
C240        C244   1.537       .  S
C240        C242   1.538       .  S
C240        H246   1.109       .  S
C241        H247   1.086       .  S
C241        C242   1.366       .  D
C242        C408   1.491       .  S
C243        H248   1.085       .  S
C243        C244   1.366       .  D
C244        C968   1.485       .  S
C249        C250   1.552       .  S
C249        C255   1.548   1_545  S
C249        C253   1.540       .  S
C249        C348   1.546       .  S
C250        H257   1.082       .  S
C250        C251   1.366       .  D
C251        C252   1.532       .  S
C251        C588   1.486       .  S
C252        C256   1.538   1_545  S
C252        C254   1.539       .  S
C252        H258   1.110       .  S
C253        H259   1.086       .  S
C253        C254   1.368       .  D
C254        C321   1.491       .  S
C255        H260   1.085       .  S
C255        C256   1.369       .  D
C256        C761   1.490       .  S
C261        C262   1.544       .  S
C261        C267   1.548   1_545  S
C261        C265   1.549       .  S
C261        C341   1.547       .  S
C262        H269   1.086       .  S
C262        C263   1.368       .  D
C263        C264   1.532       .  S
C263        C501   1.488       .  S
C264        C268   1.532   1_545  S
C264        C266   1.533       .  S
C264        H270   1.110       .  S
C265        H271   1.086       .  S
C265        C266   1.368       .  D
C266        C361   1.485       .  S
C267        H272   1.077       .  S
C267        C268   1.363       .  D
C268        C848   1.474       .  S
C273        C274   1.548       .  S
C273        C279   1.544   1_455  S
C273        C277   1.549       .  S
C273        C301   1.547   1_455  S
C274        H281   1.083       .  S
C274        C275   1.363       .  D
C275        C276   1.531       .  S
C275        C561   1.476       .  S
C276        C280   1.540   1_455  S
C276        C278   1.531       .  S
C276        H282   1.109       .  S
C277        H283   1.085       .  S
C277        C278   1.366       .  D
C278        C328   1.482       .  S
C279        H284   1.085       .  S
C279        C280   1.373       .  D
C280        C708   1.503       .  S
C285        C286   1.542       .  S
C285        C291   1.556       .  S
C285        C289   1.541   1_655  S
C285        C308   1.548       .  S
C286        H293   1.086       .  S
C286        C287   1.361       .  D
C287        C288   1.533       .  S
C287        C621   1.473   1_655  S
C288        C292   1.535       .  S
C288        C290   1.537   1_655  S
C288        H294   1.108       .  S
C289        H295   1.086       .  S
C289        C290   1.367       .  D
C290        C428   1.492       .  S
C291        H296   1.078       .  S
C291        C292   1.373       .  D
C292        C928   1.495       .  S
C297        C298   1.404       .  A
C297        C302   1.403       .  A
C297        F315   1.358       .  S
C298        C303   1.493       .  S
C298        C299   1.404       .  A
C299        C300   1.404       .  A
C299        F304   1.358       .  S
C300        C301   1.417       .  A
C300        F316   1.357   1_655  S
C301        C302   1.419       .  A
C302        F305   1.355       .  S
C303        C306   1.402   1_655  A
C303        C310   1.404       .  A
C306        C307   1.402       .  A
C306        F311   1.358       .  S
C307        C308   1.420   1_455  A
C307        F313   1.359       .  S
C308        C309   1.419       .  A
C309        C310   1.404       .  A
C309        F312   1.352       .  S
C310        F314   1.358       .  S
C317        C318   1.402       .  A
C317        C322   1.397       .  A
C317        F335   1.358       .  S
C318        C323   1.481       .  S
C318        C319   1.405       .  A
C319        C320   1.404       .  A
C319        F324   1.358       .  S
C320        C321   1.411       .  A
C320        F336   1.358       .  S
C321        C322   1.409       .  A
C322        F325   1.357       .  S
C323        C326   1.405       .  A
C323        C330   1.405       .  A
C326        C327   1.399       .  A
C326        F331   1.358       .  S
C327        C328   1.405       .  A
C327        F333   1.358       .  S
C328        C329   1.407       .  A
C329        C330   1.402       .  A
C329        F332   1.357       .  S
C330        F334   1.358       .  S
C337        C338   1.401   1_565  A
C337        C342   1.404       .  A
C337        F355   1.358       .  S
C338        C343   1.486       .  S
C338        C339   1.400       .  A
C339        C340   1.400       .  A
C339        F344   1.358       .  S
C340        C341   1.418       .  A
C340        F356   1.358       .  S
C341        C342   1.423   1_545  A
C342        F345   1.351       .  S
C343        C346   1.402       .  A
C343        C350   1.400       .  A
C346        C347   1.405       .  A
C346        F351   1.358   1_545  S
C347        C348   1.419       .  A
C347        F353   1.357   1_545  S
C348        C349   1.420       .  A
C349        C350   1.401       .  A
C349        F352   1.355       .  S
C350        F354   1.358       .  S
C357        C358   1.405       .  A
C357        C362   1.402       .  A
C357        F375   1.358       .  S
C358        C363   1.479       .  S
C358        C359   1.402       .  A
C359        C360   1.400       .  A
C359        F364   1.358       .  S
C360        C361   1.409       .  A
C360        F376   1.357       .  S
C361        C362   1.406       .  A
C362        F365   1.357       .  S
C363        C366   1.402       .  A
C363        C370   1.405       .  A
C366        C367   1.400       .  A
C366        F371   1.358       .  S
C367        C368   1.409       .  A
C367        F373   1.358       .  S
C368        C369   1.405       .  A
C369        C370   1.402       .  A
C369        F372   1.358       .  S
C370        F374   1.358       .  S
C377        C378   1.404       .  A
C377        C382   1.405       .  A
C377        F395   1.358       .  S
C378        C383   1.489       .  S
C378        C379   1.401       .  A
C379        C380   1.399       .  A
C379        F384   1.358       .  S
C380        C381   1.416       .  A
C380        F396   1.358       .  S
C381        C382   1.420       .  A
C382        F385   1.353       .  S
C383        C386   1.403       .  A
C383        C390   1.402       .  A
C386        C387   1.401       .  A
C386        F391   1.358       .  S
C387        C388   1.417       .  A
C387        F393   1.355       .  S
C388        C389   1.420       .  A
C389        C390   1.403       .  A
C389        F392   1.357       .  S
C390        F394   1.358       .  S
C397        C398   1.402       .  A
C397        C402   1.400       .  A
C397        F415   1.358       .  S
C398        C403   1.482       .  S
C398        C399   1.406       .  A
C399        C400   1.403       .  A
C399        F404   1.358       .  S
C400        C401   1.407       .  A
C400        F416   1.357       .  S
C401        C402   1.410       .  A
C402        F405   1.355       .  S
C403        C406   1.403       .  A
C403        C410   1.404       .  A
C406        C407   1.400       .  A
C406        F411   1.357       .  S
C407        C408   1.408       .  A
C407        F413   1.357       .  S
C408        C409   1.411       .  A
C409        C410   1.402       .  A
C409        F412   1.358       .  S
C410        F414   1.358       .  S
C417        C418   1.405       .  A
C417        C422   1.400       .  A
C417        F435   1.358       .  S
C418        C423   1.481       .  S
C418        C419   1.406       .  A
C419        C420   1.400       .  A
C419        F424   1.358       .  S
C420        C421   1.404       .  A
C420        F436   1.358       .  S
C421        C422   1.406       .  A
C422        F425   1.358       .  S
C423        C426   1.405       .  A
C423        C430   1.402       .  A
C426        C427   1.401       .  A
C426        F431   1.358       .  S
C427        C428   1.411       .  A
C427        F433   1.358       .  S
C428        C429   1.410       .  A
C429        C430   1.398       .  A
C429        F432   1.356       .  S
C430        F434   1.358       .  S
C437        C438   1.406       .  A
C437        C442   1.408       .  A
C437        F455   1.358       .  S
C438        C443   1.503       .  S
C438        C439   1.405       .  A
C439        C440   1.406       .  A
C439        F444   1.358       .  S
C440        C441   1.422       .  A
C440        F456   1.352       .  S
C441        C442   1.419       .  A
C442        F445   1.358       .  S
C443        C446   1.406       .  A
C443        C450   1.406       .  A
C446        C447   1.409       .  A
C446        F451   1.358       .  S
C447        C448   1.422       .  A
C447        F453   1.355       .  S
C448        C449   1.417       .  A
C449        C450   1.405       .  A
C449        F452   1.357       .  S
C450        F454   1.358       .  S
C457        C458   1.407       .  A
C457        C462   1.404       .  A
C457        F475   1.358       .  S
C458        C463   1.489       .  S
C458        C459   1.406       .  A
C459        C460   1.398       .  A
C459        F464   1.358       .  S
C460        C461   1.410       .  A
C460        F476   1.358       .  S
C461        C462   1.410       .  A
C462        F465   1.358       .  S
C463        C466   1.408       .  A
C463        C470   1.405       .  A
C466        C467   1.404       .  A
C466        F471   1.358       .  S
C467        C468   1.409       .  A
C467        F473   1.358       .  S
C468        C469   1.409       .  A
C469        C470   1.398       .  A
C469        F472   1.357       .  S
C470        F474   1.358       .  S
C477        C478   1.411       .  A
C477        C482   1.406       .  A
C477        F495   1.358       .  S
C478        C483   1.489       .  S
C478        C479   1.406       .  A
C479        C480   1.395       .  A
C479        F484   1.358       .  S
C480        C481   1.406       .  A
C480        F496   1.358       .  S
C481        C482   1.405       .  A
C482        F485   1.357       .  S
C483        C486   1.407       .  A
C483        C490   1.408       .  A
C486        C487   1.402       .  A
C486        F491   1.358       .  S
C487        C488   1.406       .  A
C487        F493   1.354       .  S
C488        C489   1.405       .  A
C489        C490   1.398       .  A
C489        F492   1.358       .  S
C490        F494   1.358       .  S
C497        C498   1.405       .  A
C497        C502   1.397       .  A
C497        F515   1.358       .  S
C498        C503   1.481       .  S
C498        C499   1.403       .  A
C499        C500   1.400       .  A
C499        F504   1.358       .  S
C500        C501   1.410       .  A
C500        F516   1.356       .  S
C501        C502   1.409       .  A
C502        F505   1.358       .  S
C503        C506   1.404       .  A
C503        C510   1.404       .  A
C506        C507   1.400       .  A
C506        F511   1.358       .  S
C507        C508   1.411       .  A
C507        F513   1.358       .  S
C508        C509   1.411       .  A
C509        C510   1.398       .  A
C509        F512   1.358       .  S
C510        F514   1.358       .  S
C517        C518   1.404       .  A
C517        C522   1.395       .  A
C517        F535   1.358       .  S
C518        C523   1.482       .  S
C518        C519   1.406       .  A
C519        C520   1.402       .  A
C519        F524   1.358       .  S
C520        C521   1.409       .  A
C520        F536   1.358       .  S
C521        C522   1.408       .  A
C522        F525   1.358       .  S
C523        C526   1.403       .  A
C523        C530   1.406       .  A
C526        C527   1.396       .  A
C526        F531   1.358       .  S
C527        C528   1.409       .  A
C527        F533   1.357       .  S
C528        C529   1.408       .  A
C529        C530   1.401       .  A
C529        F532   1.358       .  S
C530        F534   1.358       .  S
C537        C538   1.402   1_556  A
C537        C542   1.395       .  A
C537        F555   1.358       .  S
C538        C543   1.477       .  S
C538        C539   1.404       .  A
C539        C540   1.402       .  A
C539        F544   1.358       .  S
C540        C541   1.410       .  A
C540        F556   1.357       .  S
C541        C542   1.411   1_554  A
C542        F545   1.358       .  S
C543        C546   1.404       .  A
C543        C550   1.403       .  A
C546        C547   1.401       .  A
C546        F551   1.358   1_554  S
C547        C548   1.409       .  A
C547        F553   1.358   1_554  S
C548        C549   1.408       .  A
C549        C550   1.395       .  A
C549        F552   1.358       .  S
C550        F554   1.358       .  S
C557        C558   1.408       .  A
C557        C562   1.398       .  A
C557        F575   1.358       .  S
C558        C563   1.488       .  S
C558        C559   1.410       .  A
C559        C560   1.402       .  A
C559        F564   1.358       .  S
C560        C561   1.402       .  A
C560        F576   1.357   1_455  S
C561        C562   1.402       .  A
C562        F565   1.357       .  S
C563        C566   1.406       .  A
C563        C570   1.407       .  A
C566        C567   1.401       .  A
C566        F571   1.358       .  S
C567        C568   1.411       .  A
C567        F573   1.358       .  S
C568        C569   1.408       .  A
C569        C570   1.401       .  A
C569        F572   1.357       .  S
C570        F574   1.358       .  S
C577        C578   1.405       .  A
C577        C582   1.405       .  A
C577        F595   1.358       .  S
C578        C583   1.488       .  S
C578        C579   1.405       .  A
C579        C580   1.402       .  A
C579        F584   1.358       .  S
C580        C581   1.409       .  A
C580        F596   1.357       .  S
C581        C582   1.413       .  A
C582        F585   1.358       .  S
C583        C586   1.406       .  A
C583        C590   1.407       .  A
C586        C587   1.399       .  A
C586        F591   1.358       .  S
C587        C588   1.405       .  A
C587        F593   1.358       .  S
C588        C589   1.407       .  A
C589        C590   1.407       .  A
C589        F592   1.358   1_545  S
C590        F594   1.357       .  S
C597        C598   1.407   1_556  A
C597        C602   1.403       .  A
C597        F615   1.358       .  S
C598        C603   1.485       .  S
C598        C599   1.403       .  A
C599        C600   1.397       .  A
C599        F604   1.358       .  S
C600        C601   1.411       .  A
C600        F616   1.358       .  S
C601        C602   1.411   1_554  A
C602        F605   1.358       .  S
C603        C606   1.403   1_554  A
C603        C610   1.407       .  A
C606        C607   1.397       .  A
C606        F611   1.358       .  S
C607        C608   1.411   1_556  A
C607        F613   1.358       .  S
C608        C609   1.410       .  A
C609        C610   1.403       .  A
C609        F612   1.358       .  S
C610        F614   1.358       .  S
C617        C618   1.406   1_655  A
C617        C622   1.399       .  A
C617        F635   1.358       .  S
C618        C623   1.478       .  S
C618        C619   1.406       .  A
C619        C620   1.396       .  A
C619        F624   1.358       .  S
C620        C621   1.402       .  A
C620        F636   1.358       .  S
C621        C622   1.403   1_455  A
C622        F625   1.356       .  S
C623        C626   1.405       .  A
C623        C630   1.403       .  A
C626        C627   1.399       .  A
C626        F631   1.358       .  S
C627        C628   1.407       .  A
C627        F633   1.358       .  S
C628        C629   1.410       .  A
C629        C630   1.396       .  A
C629        F632   1.358       .  S
C630        F634   1.358       .  S
C637        C638   1.408       .  A
C637        C642   1.404       .  A
C637        F655   1.358       .  S
C638        C643   1.486       .  S
C638        C639   1.404       .  A
C639        C640   1.394       .  A
C639        F644   1.358       .  S
C640        C641   1.409       .  A
C640        F656   1.356       .  S
C641        C642   1.409       .  A
C642        F645   1.357       .  S
C643        C646   1.407       .  A
C643        C650   1.405       .  A
C646        C647   1.405       .  A
C646        F651   1.358       .  S
C647        C648   1.410       .  A
C647        F653   1.358       .  S
C648        C649   1.407       .  A
C649        C650   1.393       .  A
C649        F652   1.358       .  S
C650        F654   1.358       .  S
C657        C658   1.400       .  A
C657        C662   1.395       .  A
C657        F675   1.358       .  S
C658        C663   1.476       .  S
C658        C659   1.404   1_554  A
C659        C660   1.403       .  A
C659        F664   1.358       .  S
C660        C661   1.412       .  A
C660        F676   1.358       .  S
C661        C662   1.412   1_556  A
C662        F665   1.358       .  S
C663        C666   1.403       .  A
C663        C670   1.401   1_554  A
C666        C667   1.402       .  A
C666        F671   1.358       .  S
C667        C668   1.412       .  A
C667        F673   1.358       .  S
C668        C669   1.411   1_554  A
C669        C670   1.397       .  A
C669        F672   1.358       .  S
C670        F674   1.358       .  S
C677        C678   1.404       .  A
C677        C682   1.395       .  A
C677        F695   1.358       .  S
C678        C683   1.480       .  S
C678        C679   1.404       .  A
C679        C680   1.402       .  A
C679        F684   1.358   1_556  S
C680        C681   1.410       .  A
C680        F696   1.358   1_556  S
C681        C682   1.409       .  A
C682        F685   1.358       .  S
C683        C686   1.405   1_556  A
C683        C690   1.403       .  A
C686        C687   1.401       .  A
C686        F691   1.358       .  S
C687        C688   1.409   1_554  A
C687        F693   1.358       .  S
C688        C689   1.410       .  A
C689        C690   1.396       .  A
C689        F692   1.358       .  S
C690        F694   1.358       .  S
C697        C698   1.404       .  A
C697        C702   1.402       .  A
C697        F715   1.358       .  S
C698        C703   1.484       .  S
C698        C699   1.404       .  A
C699        C700   1.401       .  A
C699        F704   1.358       .  S
C700        C701   1.411       .  A
C700        F716   1.357       .  S
C701        C702   1.411       .  A
C702        F705   1.357       .  S
C703        C706   1.401       .  A
C703        C710   1.404       .  A
C706        C707   1.399       .  A
C706        F711   1.358       .  S
C707        C708   1.413       .  A
C707        F713   1.355       .  S
C708        C709   1.414       .  A
C709        C710   1.405       .  A
C709        F712   1.357       .  S
C710        F714   1.358       .  S
C717        C718   1.404       .  A
C717        C722   1.405       .  A
C717        F735   1.357       .  S
C718        C723   1.481       .  S
C718        C719   1.401       .  A
C719        C720   1.398       .  A
C719        F724   1.358       .  S
C720        C721   1.410       .  A
C720        F736   1.353       .  S
C721        C722   1.412       .  A
C722        F725   1.357       .  S
C723        C726   1.404       .  A
C723        C730   1.406       .  A
C726        C727   1.401       .  A
C726        F731   1.358       .  S
C727        C728   1.406       .  A
C727        F733   1.358       .  S
C728        C729   1.404       .  A
C729        C730   1.402       .  A
C729        F732   1.358       .  S
C730        F734   1.357       .  S
C737        C738   1.400       .  A
C737        C742   1.402       .  A
C737        F755   1.358       .  S
C738        C743   1.483       .  S
C738        C739   1.399   1_545  A
C739        C740   1.401       .  A
C739        F744   1.358       .  S
C740        C741   1.420   1_565  A
C740        F756   1.358       .  S
C741        C742   1.420       .  A
C742        F745   1.353       .  S
C743        C746   1.401   1_545  A
C743        C750   1.400       .  A
C746        C747   1.402       .  A
C746        F751   1.358       .  S
C747        C748   1.420   1_565  A
C747        F753   1.356       .  S
C748        C749   1.418       .  A
C749        C750   1.401       .  A
C749        F752   1.356       .  S
C750        F754   1.358       .  S
C757        C758   1.405       .  A
C757        C762   1.404       .  A
C757        F775   1.358       .  S
C758        C763   1.482       .  S
C758        C759   1.403       .  A
C759        C760   1.400       .  A
C759        F764   1.358       .  S
C760        C761   1.408       .  A
C760        F776   1.358       .  S
C761        C762   1.410       .  A
C762        F765   1.358       .  S
C763        C766   1.403       .  A
C763        C770   1.403       .  A
C766        C767   1.402       .  A
C766        F771   1.357       .  S
C767        C768   1.410       .  A
C767        F773   1.358       .  S
C768        C769   1.409       .  A
C769        C770   1.402       .  A
C769        F772   1.355       .  S
C770        F774   1.358       .  S
C777        C778   1.401       .  A
C777        C782   1.399       .  A
C777        F795   1.358       .  S
C778        C783   1.474       .  S
C778        C779   1.401       .  A
C779        C780   1.399       .  A
C779        F784   1.358       .  S
C780        C781   1.410       .  A
C780        F796   1.357       .  S
C781        C782   1.412       .  A
C782        F785   1.357       .  S
C783        C786   1.401       .  A
C783        C790   1.402       .  A
C786        C787   1.398       .  A
C786        F791   1.358       .  S
C787        C788   1.410       .  A
C787        F793   1.357       .  S
C788        C789   1.410       .  A
C789        C790   1.400       .  A
C789        F792   1.358       .  S
C790        F794   1.358       .  S
C797        C798   1.404       .  A
C797        C802   1.402       .  A
C797        F815   1.357       .  S
C798        C803   1.481       .  S
C798        C799   1.404       .  A
C799        C800   1.401       .  A
C799        F804   1.358       .  S
C800        C801   1.408       .  A
C800        F816   1.358       .  S
C801        C802   1.408       .  A
C802        F805   1.358       .  S
C803        C806   1.403       .  A
C803        C810   1.405       .  A
C806        C807   1.400       .  A
C806        F811   1.358       .  S
C807        C808   1.409       .  A
C807        F813   1.358       .  S
C808        C809   1.406       .  A
C809        C810   1.404       .  A
C809        F812   1.357       .  S
C810        F814   1.357       .  S
C817        C818   1.403   1_455  A
C817        C822   1.405       .  A
C817        F835   1.358       .  S
C818        C823   1.484       .  S
C818        C819   1.400       .  A
C819        C820   1.398       .  A
C819        F824   1.358       .  S
C820        C821   1.417       .  A
C820        F836   1.357       .  S
C821        C822   1.419   1_655  A
C822        F825   1.356       .  S
C823        C826   1.400       .  A
C823        C830   1.400   1_655  A
C826        C827   1.401       .  A
C826        F831   1.358       .  S
C827        C828   1.421       .  A
C827        F833   1.352       .  S
C828        C829   1.419       .  A
C829        C830   1.403   1_655  A
C829        F832   1.358   1_655  S
C830        F834   1.358       .  S
C837        C838   1.406       .  A
C837        C842   1.401       .  A
C837        F855   1.358       .  S
C838        C843   1.485       .  S
C838        C839   1.405       .  A
C839        C840   1.398       .  A
C839        F844   1.358       .  S
C840        C841   1.410       .  A
C840        F856   1.358       .  S
C841        C842   1.409       .  A
C842        F845   1.357       .  S
C843        C846   1.408       .  A
C843        C850   1.408       .  A
C846        C847   1.400       .  A
C846        F851   1.358       .  S
C847        C848   1.403       .  A
C847        F853   1.357       .  S
C848        C849   1.401       .  A
C849        C850   1.398       .  A
C849        F852   1.358       .  S
C850        F854   1.358       .  S
C857        C858   1.407       .  A
C857        C862   1.396       .  A
C857        F875   1.358       .  S
C858        C863   1.478       .  S
C858        C859   1.404       .  A
C859        C860   1.398       .  A
C859        F864   1.358       .  S
C860        C861   1.406       .  A
C860        F876   1.358       .  S
C861        C862   1.400       .  A
C862        F865   1.355       .  S
C863        C866   1.407       .  A
C863        C870   1.402       .  A
C866        C867   1.401       .  A
C866        F871   1.358       .  S
C867        C868   1.407       .  A
C867        F873   1.358       .  S
C868        C869   1.406       .  A
C869        C870   1.393       .  A
C869        F872   1.356       .  S
C870        F874   1.358       .  S
C877        C878   1.406       .  A
C877        C882   1.400       .  A
C877        F895   1.358       .  S
C878        C883   1.488       .  S
C878        C879   1.407       .  A
C879        C880   1.401       .  A
C879        F884   1.358       .  S
C880        C881   1.409       .  A
C880        F896   1.358       .  S
C881        C882   1.408       .  A
C882        F885   1.358       .  S
C883        C886   1.408       .  A
C883        C890   1.408       .  A
C886        C887   1.401       .  A
C886        F891   1.358       .  S
C887        C888   1.403       .  A
C887        F893   1.355       .  S
C888        C889   1.404       .  A
C889        C890   1.401       .  A
C889        F892   1.358       .  S
C890        F894   1.358       .  S
C897        C898   1.401       .  A
C897        C902   1.404       .  A
C897        F915   1.358       .  S
C898        C903   1.488       .  S
C898        C899   1.401       .  A
C899        C900   1.401       .  A
C899        F904   1.358       .  S
C900        C901   1.419       .  A
C900        F916   1.358       .  S
C901        C902   1.421       .  A
C902        F905   1.352       .  S
C903        C906   1.402       .  A
C903        C910   1.403       .  A
C906        C907   1.402       .  A
C906        F911   1.358       .  S
C907        C908   1.417       .  A
C907        F913   1.356       .  S
C908        C909   1.418       .  A
C909        C910   1.403       .  A
C909        F912   1.357       .  S
C910        F914   1.358       .  S
C917        C918   1.400       .  A
C917        C922   1.398       .  A
C917        F935   1.358       .  S
C918        C923   1.477       .  S
C918        C919   1.402       .  A
C919        C920   1.402       .  A
C919        F924   1.357       .  S
C920        C921   1.412       .  A
C920        F936   1.358       .  S
C921        C922   1.411       .  A
C922        F925   1.353       .  S
C923        C926   1.403       .  A
C923        C930   1.399       .  A
C926        C927   1.403       .  A
C926        F931   1.357       .  S
C927        C928   1.411       .  A
C927        F933   1.357       .  S
C928        C929   1.411       .  A
C929        C930   1.398       .  A
C929        F932   1.353       .  S
C930        F934   1.358       .  S
C937        C938   1.408       .  A
C937        C942   1.397       .  A
C937        F955   1.358       .  S
C938        C943   1.482       .  S
C938        C939   1.407       .  A
C939        C940   1.400       .  A
C939        F944   1.358       .  S
C940        C941   1.405       .  A
C940        F956   1.358       .  S
C941        C942   1.400       .  A
C942        F945   1.356       .  S
C943        C946   1.408       .  A
C943        C950   1.403       .  A
C946        C947   1.402       .  A
C946        F951   1.358       .  S
C947        C948   1.408       .  A
C947        F953   1.358       .  S
C948        C949   1.407       .  A
C949        C950   1.394       .  A
C949        F952   1.357       .  S
C950        F954   1.358       .  S
C957        C958   1.403       .  A
C957        C962   1.396       .  A
C957        F975   1.358       .  S
C958        C963   1.477       .  S
C958        C959   1.406       .  A
C959        C960   1.403       .  A
C959        F964   1.358       .  S
C960        C961   1.406       .  A
C960        F976   1.358       .  S
C961        C962   1.404       .  A
C962        F965   1.357       .  S
C963        C966   1.402       .  A
C963        C970   1.404       .  A
C966        C967   1.397       .  A
C966        F971   1.358       .  S
C967        C968   1.407       .  A
C967        F973   1.358       .  S
C968        C969   1.408       .  A
C969        C970   1.403       .  A
C969        F972   1.358       .  S
C970        F974   1.358       .  S
C977        C978   1.410       .  A
C977        C982   1.400       .  A
C977        F995   1.358       .  S
C978        C983   1.486       .  S
C978        C979   1.408       .  A
C979        C980   1.397       .  A
C979        F984   1.358       .  S
C980        C981   1.402       .  A
C980        F996   1.358       .  S
C981        C982   1.402       .  A
C982        F985   1.358       .  S
C983        C986   1.409       .  A
C983        C990   1.408       .  A
C986        C987   1.399       .  A
C986        F991   1.358       .  S
C987        C988   1.401       .  A
C987        F993   1.358       .  S
C988        C989   1.403       .  A
C989        C990   1.399       .  A
C989        F992   1.357       .  S
C990        F994   1.358       .  S
C997        C998   1.401       .  A
C997       C1002   1.398       .  A
C997       F1015   1.358       .  S
C998       C1003   1.489       .  S
C998        C999   1.404       .  A
C999       C1000   1.404       .  A
C999       F1004   1.358       .  S
C1000      C1001   1.418       .  A
C1000      F1016   1.354       .  S
C1001      C1002   1.418       .  A
C1002      F1005   1.358       .  S
C1003      C1006   1.401       .  A
C1003      C1010   1.405       .  A
C1006      C1007   1.399       .  A
C1006      F1011   1.358       .  S
C1007      C1008   1.418       .  A
C1007      F1013   1.358       .  S
C1008      C1009   1.418       .  A
C1009      C1010   1.404       .  A
C1009      F1012   1.354       .  S
C1010      F1014   1.358       .  S
C1017      C1018   1.404       .  A
C1017      C1022   1.400       .  A
C1017      F1035   1.358       .  S
C1018      C1023   1.476       .  S
C1018      C1019   1.405       .  A
C1019      C1020   1.396       .  A
C1019      F1024   1.358       .  S
C1020      C1021   1.404       .  A
C1020      F1036   1.358       .  S
C1021      C1022   1.407       .  A
C1022      F1025   1.358       .  S
C1023      C1026   1.402       .  A
C1023      C1030   1.404       .  A
C1026      C1027   1.397       .  A
C1026      F1031   1.358       .  S
C1027      C1028   1.410       .  A
C1027      F1033   1.358       .  S
C1028      C1029   1.410       .  A
C1029      C1030   1.398       .  A
C1029      F1032   1.358       .  S
C1030      F1034   1.358       .  S
C1037      C1038   1.403       .  A
C1037      C1042   1.400       .  A
C1037      F1055   1.358       .  S
C1038      C1043   1.473       .  S
C1038      C1039   1.403       .  A
C1039      C1040   1.395       .  A
C1039      F1044   1.358       .  S
C1040      C1041   1.406       .  A
C1040      F1056   1.358       .  S
C1041      C1042   1.409       .  A
C1042      F1045   1.358       .  S
C1043      C1046   1.401       .  A
C1043      C1050   1.403       .  A
C1046      C1047   1.397       .  A
C1046      F1051   1.358       .  S
C1047      C1048   1.412       .  A
C1047      F1053   1.358       .  S
C1048      C1049   1.410       .  A
C1049      C1050   1.397       .  A
C1049      F1052   1.358       .  S
C1050      F1054   1.358       .  S
C1057      C1058   1.406       .  A
C1057      C1062   1.401       .  A
C1057      F1075   1.358       .  S
C1058      C1063   1.486       .  S
C1058      C1059   1.403       .  A
C1059      C1060   1.396       .  A
C1059      F1064   1.358       .  S
C1060      C1061   1.414       .  A
C1060      F1076   1.355       .  S
C1061      C1062   1.411       .  A
C1062      F1065   1.357   1_565  S
C1063      C1066   1.406       .  A
C1063      C1070   1.406       .  A
C1066      C1067   1.398       .  A
C1066      F1071   1.358       .  S
C1067      C1068   1.411       .  A
C1067      F1073   1.358       .  S
C1068      C1069   1.410       .  A
C1069      C1070   1.400       .  A
C1069      F1072   1.357       .  S
C1070      F1074   1.358       .  S
C1077      C1078   1.404       .  A
C1077      C1082   1.401       .  A
C1077      F1095   1.358       .  S
C1078      C1083   1.486       .  S
C1078      C1079   1.406       .  A
C1079      C1080   1.401       .  A
C1079      F1084   1.358       .  S
C1080      C1081   1.411       .  A
C1080      F1096   1.358       .  S
C1081      C1082   1.411       .  A
C1082      F1085   1.358       .  S
C1083      C1086   1.407       .  A
C1083      C1090   1.406       .  A
C1086      C1087   1.402       .  A
C1086      F1091   1.358       .  S
C1087      C1088   1.408       .  A
C1087      F1093   1.358       .  S
C1088      C1089   1.406       .  A
C1089      C1090   1.398       .  A
C1089      F1092   1.358       .  S
C1090      F1094   1.358       .  S
C1097      C1098   1.403       .  A
C1097      C1102   1.400       .  A
C1097      F1115   1.358       .  S
C1098      C1103   1.474       .  S
C1098      C1099   1.402   1_556  A
C1099      C1100   1.395       .  A
C1099      F1104   1.358       .  S
C1100      C1101   1.410   1_554  A
C1100      F1116   1.358       .  S
C1101      C1102   1.410       .  A
C1102      F1105   1.357       .  S
C1103      C1106   1.403   1_556  A
C1103      C1110   1.401       .  A
C1106      C1107   1.399       .  A
C1106      F1111   1.358       .  S
C1107      C1108   1.410   1_554  A
C1107      F1113   1.358       .  S
C1108      C1109   1.411       .  A
C1109      C1110   1.394       .  A
C1109      F1112   1.358       .  S
C1110      F1114   1.358       .  S
C1117      C1118   1.402       .  A
C1117      C1122   1.397       .  A
C1117      F1135   1.358       .  S
C1118      C1123   1.477       .  S
C1118      C1119   1.403       .  A
C1119      C1120   1.398       .  A
C1119      F1124   1.358       .  S
C1120      C1121   1.410       .  A
C1120      F1136   1.358       .  S
C1121      C1122   1.411       .  A
C1122      F1125   1.358       .  S
C1123      C1126   1.403       .  A
C1123      C1130   1.404       .  A
C1126      C1127   1.399       .  A
C1126      F1131   1.358       .  S
C1127      C1128   1.406       .  A
C1127      F1133   1.357   1_565  S
C1128      C1129   1.409       .  A
C1129      C1130   1.398       .  A
C1129      F1132   1.358       .  S
C1130      F1134   1.358       .  S
C1137      C1138   1.405       .  A
C1137      C1142   1.393       .  A
C1137      F1155   1.358       .  S
C1138      C1143   1.484       .  S
C1138      C1139   1.409       .  A
C1139      C1140   1.401       .  A
C1139      F1144   1.358       .  S
C1140      C1141   1.407       .  A
C1140      F1156   1.358       .  S
C1141      C1142   1.407       .  A
C1142      F1145   1.358       .  S
C1143      C1146   1.409       .  A
C1143      C1150   1.408       .  A
C1146      C1147   1.398       .  A
C1146      F1151   1.358       .  S
C1147      C1148   1.401       .  A
C1147      F1153   1.357   1_655  S
C1148      C1149   1.402       .  A
C1149      C1150   1.397       .  A
C1149      F1152   1.358       .  S
C1150      F1154   1.358       .  S
C1157      C1158   1.403       .  A
C1157      C1162   1.397       .  A
C1157      F1175   1.358       .  S
C1158      C1163   1.473       .  S
C1158      C1159   1.402   1_554  A
C1159      C1160   1.394       .  A
C1159      F1164   1.358       .  S
C1160      C1161   1.411   1_556  A
C1160      F1176   1.358       .  S
C1161      C1162   1.409       .  A
C1162      F1165   1.357       .  S
C1163      C1166   1.404   1_554  A
C1163      C1170   1.402       .  A
C1166      C1167   1.396       .  A
C1166      F1171   1.358       .  S
C1167      C1168   1.406       .  A
C1167      F1173   1.357       .  S
C1168      C1169   1.410   1_556  A
C1169      C1170   1.396       .  A
C1169      F1172   1.358       .  S
C1170      F1174   1.358       .  S
C1177      C1178   1.403       .  A
C1177      C1182   1.401       .  A
C1177      F1195   1.358       .  S
C1178      C1183   1.481       .  S
C1178      C1179   1.404       .  A
C1179      C1180   1.399       .  A
C1179      F1184   1.358       .  S
C1180      C1181   1.410       .  A
C1180      F1196   1.358       .  S
C1181      C1182   1.412       .  A
C1182      F1185   1.358       .  S
C1183      C1186   1.403       .  A
C1183      C1190   1.405       .  A
C1186      C1187   1.400       .  A
C1186      F1191   1.358       .  S
C1187      C1188   1.410       .  A
C1187      F1193   1.357       .  S
C1188      C1189   1.410       .  A
C1189      C1190   1.399       .  A
C1189      F1192   1.357       .  S
C1190      F1194   1.358       .  S
C1197      C1198   1.402       .  A
C1197      C1202   1.393       .  A
C1197      F1215   1.358       .  S
C1198      C1203   1.479       .  S
C1198      C1199   1.405       .  A
C1199      C1200   1.403       .  A
C1199      F1204   1.358       .  S
C1200      C1201   1.411       .  A
C1200      F1216   1.358       .  S
C1201      C1202   1.410       .  A
C1202      F1205   1.358       .  S
C1203      C1206   1.404       .  A
C1203      C1210   1.400       .  A
C1206      C1207   1.403       .  A
C1206      F1211   1.358       .  S
C1207      C1208   1.412       .  A
C1207      F1213   1.357       .  S
C1208      C1209   1.414       .  A
C1209      C1210   1.395       .  A
C1209      F1212   1.355       .  S
C1210      F1214   1.359       .  S
C1217      C1218   1.400   1_554  A
C1217      C1222   1.394       .  A
C1217      F1235   1.358       .  S
C1218      C1223   1.471       .  S
C1218      C1219   1.402       .  A
C1219      C1220   1.400       .  A
C1219      F1224   1.358       .  S
C1220      C1221   1.411   1_556  A
C1220      F1236   1.358       .  S
C1221      C1222   1.411       .  A
C1222      F1225   1.358       .  S
C1223      C1226   1.400       .  A
C1223      C1230   1.402   1_556  A
C1226      C1227   1.396       .  A
C1226      F1231   1.358       .  S
C1227      C1228   1.411       .  A
C1227      F1233   1.358       .  S
C1228      C1229   1.411   1_556  A
C1229      C1230   1.400       .  A
C1229      F1232   1.358       .  S
C1230      F1234   1.358       .  S
C1237      C1238   1.407   1_556  A
C1237      C1242   1.399       .  A
C1237      F1255   1.358       .  S
C1238      C1243   1.479       .  S
C1238      C1239   1.403       .  A
C1239      C1240   1.395       .  A
C1239      F1244   1.358       .  S
C1240      C1241   1.409   1_554  A
C1240      F1256   1.358       .  S
C1241      C1242   1.407       .  A
C1242      F1245   1.358       .  S
C1243      C1246   1.407       .  A
C1243      C1250   1.402   1_554  A
C1246      C1247   1.401       .  A
C1246      F1251   1.358       .  S
C1247      C1248   1.409       .  A
C1247      F1253   1.358       .  S
C1248      C1249   1.410   1_554  A
C1249      C1250   1.392       .  A
C1249      F1252   1.358       .  S
C1250      F1254   1.358       .  S
