geometry optimzed in LAMMPS
_audit_creation_date              2020-11-30 
_audit_creation_method            'lammps2cif' 
_symmetry_space_group_name_H-M    'P1' 
_symmetry_Int_Tables_number       1 
_symmetry_cell_setting            triclinic 
loop_ 
_symmetry_equiv_pos_as_xyz 
  x,y,z 
_cell_length_a                    46.43356503 
_cell_length_b                    46.46770739979661 
_cell_length_c                    46.337204460431195 
_cell_angle_alpha                 90.06583898842592 
_cell_angle_beta                  90.03732135440283 
_cell_angle_gamma                 89.97877031716857 
loop_ 
_atom_site_label 
_atom_site_type_symbol 
_atom_site_fract_x 
_atom_site_fract_y 
_atom_site_fract_z 
_atom_site_charge 
In1        In  0.36764143  0.86024472  0.50629338     1.36900
C2          C  0.34091953  0.82770500  0.54413007     0.77200
O3          O  0.38820932  0.88394878  0.54243474    -0.61200
O4          O  0.35577611  0.90583581  0.51845931    -0.52100
C5          C  0.41254680  0.86392958  0.47053368     0.69900
O6          O  0.41243782  0.84696336  0.49201074    -0.47000
C7          C  0.33407289  0.83267723  0.47061339     0.74600
O8          O  0.36749533  0.82394273  0.53847763    -0.58800
O9          O  0.33030852  0.85943086  0.47531623    -0.48900
O10         O  0.32939014  0.84944302  0.53251817    -0.55300
C11         C  0.37319147  0.90653873  0.53958226     0.84800
O12         O  0.39028771  0.87957805  0.46868556    -0.57100
O13         O  0.35614535  0.82156783  0.48197369    -0.60400
In14       In  0.20058936  0.69923289  0.50936130     1.36900
C15         C  0.23303352  0.72878035  0.54502240     0.77200
O16         O  0.18413028  0.67507391  0.54732055    -0.61200
O17         O  0.21140104  0.65262228  0.51803636    -0.52100
C18         C  0.15124385  0.69707407  0.48000911     0.69900
O19         O  0.15443732  0.71342240  0.50179149    -0.47000
C20         C  0.23091593  0.72706299  0.47090274     0.74600
O21         O  0.20617021  0.73398733  0.54293039    -0.58800
O22         O  0.23461165  0.70018339  0.47475204    -0.48900
O23         O  0.24204202  0.70735240  0.53085508    -0.55300
C24         C  0.19698146  0.65182067  0.54132533     0.84800
O25         O  0.17314857  0.68200543  0.47407514    -0.57100
O26         O  0.21020718  0.73828422  0.48456843    -0.60400
In27       In  0.29152521  0.77355315  0.59445811     1.36900
C28         C  0.32368648  0.80787624  0.56164531     0.77200
O29         O  0.28013228  0.74297912  0.55923681    -0.61200
O30         O  0.24572989  0.76523521  0.57972371    -0.52100
C31         C  0.30722704  0.72754737  0.62366474     0.69900
O32         O  0.32507642  0.74148338  0.60861582    -0.47000
C33         C  0.28242308  0.80833454  0.63867052     0.74600
O34         O  0.33370205  0.78543268  0.57310494    -0.58800
O35         O  0.26368435  0.80467315  0.61928307    -0.48900
O36         O  0.29715758  0.81185254  0.56578308    -0.55300
C37         C  0.25328525  0.74627778  0.56176734     0.84800
O38         O  0.28187584  0.73719409  0.62363961    -0.57100
O39         O  0.30532999  0.79432973  0.63501367    -0.60400
In40       In  0.28245954  0.78003515  0.42184736     1.36900
C41         C  0.31419784  0.81461495  0.45428519     0.77200
O42         O  0.24706159  0.77205434  0.45314537    -0.61200
O43         O  0.27034108  0.73566909  0.43834993    -0.52100
C44         C  0.24479275  0.79808249  0.38345109     0.69900
O45         O  0.24663824  0.80920023  0.40814962    -0.47000
C46         C  0.32565861  0.76344605  0.38953062     0.74600
O47         O  0.29488742  0.82432332  0.43789237    -0.58800
O48         O  0.30955526  0.74518923  0.40170481    -0.48900
O49         O  0.31563550  0.78755413  0.45555261    -0.55300
C50         C  0.24986465  0.74513489  0.45342770     0.84800
O51         O  0.26267446  0.77838083  0.37841625    -0.57100
O52         O  0.31878599  0.78942426  0.39337830    -0.60400
In53       In  0.52793049  0.86547234  0.32850362     1.36900
C54         C  0.49156852  0.83275574  0.30007661     0.77200
O55         O  0.55151273  0.85534151  0.28850792    -0.61200
O56         O  0.56307100  0.83219561  0.32695306    -0.52100
C57         C  0.55858906  0.91382738  0.33179131     0.69900
O58         O  0.53702992  0.91145144  0.31500586    -0.47000
C59         C  0.49550739  0.86856302  0.37573971     0.74600
O60         O  0.49433448  0.85928388  0.29358994    -0.58800
O61         O  0.51796152  0.85295169  0.37447517    -0.48900
O62         O  0.50555875  0.82444007  0.32192269    -0.55300
C63         C  0.56593082  0.83519331  0.29979206     0.84800
O64         O  0.56321123  0.89191546  0.34735586    -0.57100
O65         O  0.49079556  0.88314916  0.35314409    -0.60400
In66       In  0.52648208  0.69038793  0.17476533     1.36900
C67         C  0.56390642  0.72554437  0.19868972     0.77200
O68         O  0.50059209  0.72870250  0.18434905    -0.61200
O69         O  0.49723357  0.69287210  0.21349763    -0.52100
C70         C  0.48975598  0.68243394  0.13118029     0.69900
O71         O  0.51041789  0.70032970  0.13006906    -0.47000
C72         C  0.56232503  0.64583291  0.16961173     0.74600
O73         O  0.55748301  0.72791018  0.17206017    -0.58800
O74         O  0.54198781  0.64605630  0.18799062    -0.48900
O75         O  0.55319572  0.70408477  0.21149609    -0.55300
C76         C  0.49075319  0.71890805  0.20776890     0.84800
O77         O  0.48879249  0.66801628  0.15434360    -0.57100
O78         O  0.56279792  0.66771397  0.15339047    -0.60400
In79       In  0.44139999  0.77247679  0.25824947     1.36900
C80         C  0.47394562  0.73760770  0.22677206     0.77200
O81         O  0.40118232  0.75722483  0.23823361    -0.61200
O82         O  0.41637390  0.79825103  0.22534475    -0.52100
C83         C  0.41147329  0.76041908  0.30454901     0.69900
O84         O  0.42594557  0.74116444  0.29188416    -0.47000
C85         C  0.47437498  0.81191568  0.28365342     0.74600
O86         O  0.46359900  0.72972802  0.25060639    -0.58800
O87         O  0.45778198  0.81839341  0.26309153    -0.48900
O88         O  0.46905906  0.76345136  0.22020087    -0.55300
C89         C  0.39710491  0.77920198  0.22300784     0.84800
O90         O  0.41199252  0.78493411  0.29299965    -0.57100
O91         O  0.47530547  0.78546196  0.28957216    -0.60400
In92       In  0.61360421  0.78148921  0.24713622     1.36900
C93         C  0.58305140  0.81583177  0.28167323     0.77200
O94         O  0.65183951  0.80888276  0.25205191    -0.61200
O95         O  0.62751568  0.81288850  0.21305198    -0.52100
C96         C  0.65183704  0.74319434  0.26474475     0.69900
O97         O  0.62938213  0.74864834  0.27908519    -0.47000
C98         C  0.58120663  0.74641728  0.21496291     0.74600
O99         O  0.59903079  0.79626949  0.29147530    -0.58800
O100        O  0.59661258  0.76566047  0.20370010    -0.48900
O101        O  0.58198260  0.81704314  0.25456027    -0.55300
C102        C  0.64898289  0.82082571  0.22782460     0.84800
O103        O  0.65437987  0.75718972  0.24161404    -0.57100
O104        O  0.58146046  0.74624713  0.24211050    -0.60400
In105      In  0.70075368  0.52567532  0.17536287     1.36900
C106        C  0.73209640  0.48972629  0.20609737     0.77200
O107        O  0.68474959  0.48970855  0.14730747    -0.61200
O108        O  0.71671803  0.51753949  0.12990414    -0.52100
C109        C  0.65310614  0.55799547  0.17105005     0.69900
O110        O  0.65371516  0.53496577  0.18587712    -0.47000
C111        C  0.72842380  0.56330708  0.20710212     0.74600
O112        O  0.70485770  0.49090090  0.20955754    -0.58800
O113        O  0.73360574  0.56080933  0.18021348    -0.48900
O114        O  0.74193944  0.50467509  0.18560842    -0.55300
C115        C  0.70126726  0.49528553  0.12626075     0.84800
O116        O  0.67639477  0.56310574  0.15778173    -0.57100
O117        O  0.70789178  0.54819491  0.21667697    -0.60400
In118      In  0.85962871  0.53140949  0.34482688     1.36900
C119        C  0.82529552  0.56591350  0.31630551     0.77200
O120        O  0.87962454  0.57003514  0.36522699    -0.61200
O121        O  0.90529373  0.54536687  0.33630661    -0.52100
C122        C  0.86363519  0.49818509  0.39107225     0.69900
O123        O  0.84564768  0.51870810  0.38955787    -0.47000
C124        C  0.83738220  0.49271571  0.31014739     0.74600
O125        O  0.82045608  0.56000097  0.34266226    -0.58800
O126        O  0.86348171  0.50058242  0.30729526    -0.48900
O127        O  0.84866902  0.55638986  0.30612663    -0.55300
C128        C  0.90364996  0.56726579  0.35261114     0.84800
O129        O  0.87994723  0.49582814  0.36932590    -0.57100
O130        O  0.82439622  0.50262796  0.33193298    -0.60400
In131      In  0.77436985  0.61468493  0.26309643     1.36900
C132        C  0.80544050  0.58188989  0.29776487     0.77200
O133        O  0.74064470  0.58185694  0.25343085    -0.61200
O134        O  0.76585784  0.59714707  0.21840433    -0.52100
C135        C  0.73707551  0.65616119  0.27401733     0.69900
O136        O  0.73963274  0.63487411  0.29078548    -0.47000
C137        C  0.81818892  0.64901508  0.25471564     0.74600
O138        O  0.78318946  0.59473791  0.30676122    -0.58800
O139        O  0.80658841  0.63566076  0.23391775    -0.48900
O140        O  0.80996353  0.58392477  0.27101479    -0.55300
C141        C  0.74538687  0.58138025  0.22664584     0.84800
O142        O  0.75270300  0.65527225  0.25192355    -0.57100
O143        O  0.80694701  0.64467148  0.27909562    -0.60400
In144      In  0.79089629  0.44243288  0.25342896     1.36900
C145        C  0.82176970  0.47487027  0.28930231     0.77200
O146        O  0.77877641  0.47826898  0.22386501    -0.61200
O147        O  0.74456940  0.45406819  0.24196872    -0.52100
C148        C  0.80839884  0.41550370  0.20694996     0.69900
O149        O  0.82503255  0.43240706  0.22037768    -0.47000
C150        C  0.78074699  0.39949153  0.28929330     0.74600
O151        O  0.83319397  0.46261623  0.26788518    -0.58800
O152        O  0.76443367  0.42110248  0.28752254    -0.48900
O153        O  0.79497910  0.47137080  0.29140359    -0.55300
C154        C  0.75205447  0.47354836  0.22462735     0.84800
O155        O  0.78390948  0.41184699  0.21806905    -0.57100
O156        O  0.80179867  0.39963812  0.27215997    -0.60400
In157      In  0.69759495  0.03036040  0.32732855     1.36900
C158        C  0.72509471  0.99183486  0.29679070     0.77200
O159        O  0.67163803  0.99600158  0.34876251    -0.61200
O160        O  0.65178935  0.02017298  0.31505188    -0.52100
C161        C  0.69456973  0.06447045  0.37339956     0.69900
O162        O  0.71016912  0.04193238  0.37304179    -0.47000
C163        C  0.72890434  0.06591542  0.29636531     0.74600
O164        O  0.73159531  0.99610352  0.32320185    -0.58800
O165        O  0.70172302  0.06436415  0.29280134    -0.48900
O166        O  0.70313507  0.00509358  0.28762571    -0.55300
C167        C  0.64949162  0.99979813  0.33321085     0.84800
O168        O  0.68019387  0.06840291  0.35051575    -0.57100
O169        O  0.73901346  0.05096570  0.31679756    -0.60400
In170      In  0.86351309  0.02942256  0.16564422     1.36900
C171        C  0.83722470  0.06842310  0.19693567     0.77200
O172        O  0.88691275  0.06476103  0.14363557    -0.61200
O173        O  0.85619816  0.04138559  0.11894022    -0.52100
C174        C  0.90823510  0.99335174  0.16569487     0.69900
O175        O  0.90683679  0.01486707  0.18254821    -0.47000
C176        C  0.82609404  0.99484123  0.19006198     0.74600
O177        O  0.86324982  0.06155595  0.20207559    -0.58800
O178        O  0.82449170  0.00010711  0.16314191    -0.48900
O179        O  0.82635123  0.05759470  0.17441218    -0.55300
C180        C  0.87416365  0.06199790  0.11970002     0.84800
O181        O  0.88700036  0.99111523  0.14874554    -0.57100
O182        O  0.84759931  0.00539924  0.20291187    -0.60400
In183      In  0.77321684  0.94390113  0.23937991     1.36900
C184        C  0.80504627  0.97819969  0.20658284     0.77200
O185        O  0.73581553  0.97197664  0.25068181    -0.61200
O186        O  0.76550038  0.96214186  0.28403955    -0.52100
C187        C  0.73549422  0.90492810  0.22283878     0.69900
O188        O  0.73803669  0.92847864  0.20954379    -0.47000
C189        C  0.81536766  0.90900786  0.25385029     0.74600
O190        O  0.78564217  0.96263408  0.19565466    -0.58800
O191        O  0.79979729  0.92121823  0.27253794    -0.48900
O192        O  0.80605085  0.97790494  0.23373128    -0.55300
C193        C  0.74245541  0.97451347  0.27692534     0.84800
O194        O  0.75208739  0.90174626  0.24401070    -0.57100
O195        O  0.80916204  0.91477882  0.22798244    -0.60400
In196      In  0.78549469  0.11674026  0.25046126     1.36900
C197        C  0.81950676  0.08581105  0.21638061     0.77200
O198        O  0.77520734  0.07995699  0.27953489    -0.61200
O199        O  0.73990580  0.10228946  0.26087021    -0.52100
C200        C  0.80010637  0.14387378  0.29776993     0.69900
O201        O  0.81799016  0.12812808  0.28455530    -0.47000
C202        C  0.77589326  0.16010671  0.21454986     0.74600
O203        O  0.82938718  0.09985634  0.23745337    -0.58800
O204        O  0.75978442  0.13822671  0.21504423    -0.48900
O205        O  0.79253583  0.08689152  0.21356079    -0.55300
C206        C  0.74827597  0.08313904  0.27825145     0.84800
O207        O  0.77551700  0.14589964  0.28638350    -0.57100
O208        O  0.79587928  0.15978785  0.23289470    -0.60400
In209      In  0.02883675  0.85740362  0.17976659     1.36900
C210        C  0.99046025  0.82711173  0.20813973     0.77200
O211        O  0.05191893  0.81914148  0.19440885    -0.61200
O212        O  0.06031994  0.85867634  0.21695547    -0.52100
C213        C  0.06259930  0.85784929  0.13286681     0.69900
O214        O  0.04038367  0.84205397  0.13470603    -0.47000
C215        C  0.99643724  0.90426076  0.17395286     0.74600
O216        O  0.99652438  0.82108171  0.18202983    -0.58800
O217        O  0.01805305  0.90351633  0.19071402    -0.48900
O218        O  0.00199656  0.84964941  0.21803200    -0.55300
C219        C  0.06394924  0.83157427  0.21540951     0.84800
O220        O  0.06668019  0.87364528  0.15477897    -0.57100
O221        O  0.99271975  0.88149428  0.15937559    -0.60400
In222      In  0.11349554  0.78089952  0.26760584     1.36900
C223        C  0.08119466  0.74783740  0.30142355     0.77200
O224        O  0.15616796  0.77405079  0.28743470    -0.61200
O225        O  0.13305699  0.81200544  0.29887030    -0.52100
C226        C  0.14295509  0.76594856  0.22177056     0.69900
O227        O  0.12975976  0.74731925  0.23661312    -0.47000
C228        C  0.08014068  0.81450636  0.23621132     0.74600
O229        O  0.09495651  0.73767491  0.28033817    -0.58800
O230        O  0.09629991  0.82491024  0.25542942    -0.48900
O231        O  0.08385288  0.77458915  0.30493812    -0.55300
C232        C  0.15572804  0.79728913  0.30141273     0.84800
O233        O  0.14224963  0.79116434  0.23168551    -0.57100
O234        O  0.07919186  0.78744893  0.23535718    -0.60400
In235      In  0.02374107  0.70409456  0.35116542     1.36900
C236        C  0.98783380  0.73407423  0.31956187     0.77200
O237        O  0.04969463  0.74231703  0.34113364    -0.61200
O238        O  0.05706468  0.70409247  0.31595484    -0.52100
C239        C  0.05646581  0.70057629  0.39803701     0.69900
O240        O  0.03552620  0.71815249  0.39640744    -0.47000
C241        C  0.98926433  0.65894987  0.35750914     0.74600
O242        O  0.99168920  0.74011269  0.34611788    -0.58800
O243        O  0.01183395  0.65791257  0.34199878    -0.48900
O244        O  0.00048825  0.71171271  0.31050075    -0.55300
C245        C  0.06254871  0.73064451  0.32011861     0.84800
O246        O  0.05927071  0.68436640  0.37621171    -0.57100
O247        O  0.98567462  0.68265056  0.37052254    -0.60400
In248      In  0.93841507  0.78042906  0.26236507     1.36900
C249        C  0.97088785  0.75176997  0.29964548     0.77200
O250        O  0.90305780  0.75339461  0.27752611    -0.61200
O251        O  0.91989527  0.74499163  0.23542477    -0.52100
C252        C  0.90089427  0.82213686  0.26697738     0.69900
O253        O  0.91683130  0.81538367  0.28805829    -0.47000
C254        C  0.97256490  0.80922153  0.22692533     0.74600
O255        O  0.95707936  0.77399496  0.30707891    -0.58800
O256        O  0.95900769  0.78719122  0.21856636    -0.48900
O257        O  0.96944430  0.74565234  0.27317314    -0.55300
C258        C  0.90282119  0.73767598  0.25536515     0.84800
O259        O  0.90322054  0.80654951  0.24485749    -0.57100
O260        O  0.96999968  0.81502026  0.25338896    -0.60400
In261      In  0.35202038  0.68122239  0.01068934     1.36900
C262        C  0.31914226  0.70829072  0.04844259     0.77200
O263        O  0.37783253  0.66233608  0.04697667    -0.61200
O264        O  0.39647513  0.69625394  0.02255460    -0.52100
C265        C  0.35793189  0.63478730  0.97726208     0.69900
O266        O  0.34011178  0.63565947  0.99805019    -0.47000
C267        C  0.32636853  0.71348309  0.97181063     0.74600
O268        O  0.31545655  0.68160099  0.04337260    -0.58800
O269        O  0.35289363  0.71673396  0.97776241    -0.48900
O270        O  0.34040791  0.71962911  0.03592138    -0.55300
C271        C  0.39898306  0.67925180  0.04379290     0.84800
O272        O  0.37313554  0.65723295  0.97475033    -0.57100
O273        O  0.31407595  0.69258096  0.98408465    -0.60400
In274      In  0.19592651  0.84982634  0.00829886     1.36900
C275        C  0.22481860  0.81814523  0.97158420     0.77200
O276        O  0.17686813  0.87532362  0.97212249    -0.61200
O277        O  0.21000806  0.89497439  0.99702800    -0.52100
C278        C  0.15059237  0.85645036  0.04263677     0.69900
O279        O  0.14974111  0.84026029  0.02046546    -0.47000
C280        C  0.22424912  0.81823946  0.04560955     0.74600
O281        O  0.19760645  0.81539556  0.97399592    -0.58800
O282        O  0.23022167  0.84482857  0.04231130    -0.48900
O283        O  0.23602054  0.83845891  0.98591081    -0.55300
C284        C  0.19288596  0.89712071  0.97572151     0.84800
O285        O  0.17425190  0.86954634  0.04599503    -0.57100
O286        O  0.20282425  0.80904031  0.03143972    -0.60400
In287      In  0.26814661  0.76175973  0.09826540     1.36900
C288        C  0.24105119  0.79852271  0.06368647     0.77200
O289        O  0.30330649  0.75314854  0.06700736    -0.61200
O290        O  0.27948538  0.71693184  0.08135551    -0.52100
C291        C  0.30692484  0.77376660  0.13838993     0.69900
O292        O  0.30226477  0.79021873  0.11726474    -0.47000
C293        C  0.22267216  0.75332593  0.13097410     0.74600
O294        O  0.26059852  0.80660038  0.08074887    -0.58800
O295        O  0.23188429  0.73354029  0.11461697    -0.48900
O296        O  0.23674839  0.77172386  0.06316776    -0.55300
C297        C  0.30008959  0.72625605  0.06626183     0.84800
O298        O  0.29157287  0.75137375  0.13876084    -0.57100
O299        O  0.23709645  0.77625108  0.13074093    -0.60400
In300      In  0.27944998  0.76956439  0.92133317     1.36900
C301        C  0.24319181  0.79898665  0.95449598     0.77200
O302        O  0.28311502  0.73168569  0.95093852    -0.61200
O303        O  0.32155230  0.75366434  0.93978080    -0.52100
C304        C  0.26709342  0.73662319  0.87593817     0.69900
O305        O  0.25125053  0.73736674  0.89801113    -0.47000
C306        C  0.30090514  0.81638212  0.89805263     0.74600
O307        O  0.23422714  0.78313766  0.93428539    -0.58800
O308        O  0.31669931  0.79873332  0.91142654    -0.48900
O309        O  0.26994467  0.79782529  0.95888172    -0.55300
C310        C  0.31009764  0.73326587  0.95341810     0.84800
O311        O  0.28833527  0.75338388  0.87704746    -0.57100
O312        O  0.27464070  0.80965001  0.89637660    -0.60400
In313      In  0.36434211  0.51947807  0.83583086     1.36900
C314        C  0.33409862  0.48502617  0.80253897     0.77200
O315        O  0.32622774  0.54584801  0.82562327    -0.61200
O316        O  0.36500604  0.55374344  0.80155028    -0.52100
C317        C  0.36649553  0.55020518  0.88455220     0.69900
O318        O  0.34981224  0.52870126  0.88157094    -0.47000
C319        C  0.40989390  0.48444518  0.84043069     0.74600
O320        O  0.32844062  0.48728885  0.82936496    -0.58800
O321        O  0.41072506  0.50777883  0.82617569    -0.48900
O322        O  0.35588536  0.49882980  0.79389788    -0.55300
C323        C  0.33827796  0.55895630  0.80499727     0.84800
O324        O  0.38249928  0.55486519  0.86295324    -0.57100
O325        O  0.38609766  0.48010812  0.85306728    -0.60400
In326      In  0.20793224  0.52168968  0.66838541     1.36900
C327        C  0.24005252  0.48199083  0.69241189     0.77200
O328        O  0.24747526  0.54495850  0.68056154    -0.61200
O329        O  0.20961478  0.55298291  0.70578238    -0.52100
C330        C  0.20235738  0.55737345  0.62388273     0.69900
O331        O  0.21871919  0.53548376  0.62300863    -0.47000
C332        C  0.16080962  0.48935099  0.66427899     0.74600
O333        O  0.24465084  0.48970255  0.66646276    -0.58800
O334        O  0.16334747  0.50923516  0.68292356    -0.48900
O335        O  0.21799768  0.49268346  0.70419506    -0.55300
C336        C  0.23643034  0.55729512  0.70216806     0.84800
O337        O  0.18830479  0.55990541  0.64715420    -0.57100
O338        O  0.18188765  0.48735944  0.64704246    -0.60400
In339      In  0.29304537  0.43273126  0.74381954     1.36900
C340        C  0.31723039  0.46784084  0.78205800     0.77200
O341        O  0.33041283  0.40757719  0.75785864    -0.61200
O342        O  0.32699751  0.41704206  0.71293397    -0.52100
C343        C  0.25883672  0.38833094  0.75404491     0.69900
O344        O  0.25985746  0.41005809  0.77032650    -0.47000
C345        C  0.25932288  0.46373433  0.70942252     0.74600
O346        O  0.29897269  0.44919636  0.78948612    -0.58800
O347        O  0.28291517  0.45362121  0.70048942    -0.48900
O348        O  0.32102662  0.47002968  0.75519181    -0.55300
C349        C  0.34117479  0.40521826  0.73301446     0.84800
O350        O  0.27594284  0.38918989  0.73296413    -0.57100
O351        O  0.25368395  0.45827155  0.73538765    -0.60400
In352      In  0.28866386  0.60971377  0.75119096     1.36900
C353        C  0.25440548  0.57488284  0.72130517     0.77200
O354        O  0.27939533  0.63454078  0.71170854    -0.61200
O355        O  0.32342891  0.62949506  0.72372732    -0.52100
C356        C  0.27345673  0.65308910  0.78537699     0.69900
O357        O  0.25771368  0.63118641  0.78216514    -0.47000
C358        C  0.32130418  0.57732724  0.78571330     0.74600
O359        O  0.24455847  0.59168916  0.74030116    -0.58800
O360        O  0.33141863  0.58955509  0.76370579    -0.48900
O361        O  0.28148640  0.57463369  0.71922892    -0.55300
C362        C  0.30541540  0.63958285  0.70595335     0.84800
O363        O  0.29636072  0.65245935  0.77099953    -0.57100
O364        O  0.29472848  0.58110732  0.78949574    -0.60400
In365      In  0.20517765  0.01793480  0.83983796     1.36900
C366        C  0.23816013  0.98114763  0.81273497     0.77200
O367        O  0.21678931  0.04051511  0.80007885    -0.61200
O368        O  0.23911975  0.05277362  0.83894421    -0.52100
C369        C  0.15882491  0.05135887  0.84042028     0.69900
O370        O  0.16063364  0.02937349  0.82415649    -0.47000
C371        C  0.19601758  0.98464539  0.88554305     0.74600
O372        O  0.21179021  0.98424649  0.80571074    -0.58800
O373        O  0.21313454  0.00602639  0.88623209    -0.48900
O374        O  0.24643434  0.99519381  0.83464549    -0.55300
C375        C  0.23646149  0.05540803  0.81166767     0.84800
O376        O  0.18021163  0.05479607  0.85710897    -0.57100
O377        O  0.18318889  0.98130839  0.86164321    -0.60400
In378      In  0.28438341  0.10663130  0.75727695     1.36900
C379        C  0.25500892  0.07330739  0.79348253     0.77200
O380        O  0.24490895  0.13228482  0.76239482    -0.61200
O381        O  0.25799381  0.12102933  0.71959072    -0.52100
C382        C  0.32075408  0.14912191  0.76940199     0.69900
O383        O  0.31950823  0.12645369  0.78426106    -0.47000
C384        C  0.31854016  0.07376927  0.72554820     0.74600
O385        O  0.27082246  0.09340721  0.80265330    -0.58800
O386        O  0.29592755  0.08472816  0.71537584    -0.48900
O387        O  0.25572481  0.06959155  0.76658391    -0.55300
C388        C  0.23983622  0.13339391  0.73564720     0.84800
O389        O  0.30216677  0.15064706  0.74969643    -0.57100
O390        O  0.32304821  0.07893702  0.75182838    -0.60400
In391      In  0.37150687  0.01857402  0.68285323     1.36900
C392        C  0.33806178  0.05573663  0.70882709     0.77200
O393        O  0.33440688  0.99161675  0.69468277    -0.61200
O394        O  0.37307491  0.98611091  0.71931119    -0.52100
C395        C  0.37577659  0.98816233  0.63448714     0.69900
O396        O  0.35875132  0.00940353  0.63675200    -0.47000
C397        C  0.41747397  0.05263825  0.67823056     0.74600
O398        O  0.33355450  0.04850163  0.68276812    -0.58800
O399        O  0.41703143  0.03112949  0.69510571    -0.48900
O400        O  0.36046588  0.04548243  0.72031929    -0.55300
C401        C  0.34657718  0.97998960  0.71603312     0.84800
O402        O  0.39038277  0.98317726  0.65695830    -0.57100
O403        O  0.39472901  0.05568368  0.66351532    -0.60400
In404      In  0.29676224  0.93003223  0.76996916     1.36900
C405        C  0.25860914  0.96349123  0.79645146     0.77200
O406        O  0.32874273  0.91871581  0.80488956    -0.61200
O407        O  0.28701644  0.89941745  0.80463453    -0.52100
C408        C  0.28554313  0.88770950  0.73334245     0.69900
O409        O  0.30821688  0.88917416  0.74815126    -0.47000
C410        C  0.32976521  0.96214153  0.73587829     0.74600
O411        O  0.25120164  0.94555083  0.77744165    -0.58800
O412        O  0.34037534  0.94758249  0.75619819    -0.48900
O413        O  0.28538010  0.96531362  0.80063590    -0.55300
C414        C  0.31091803  0.90228177  0.81718498     0.84800
O415        O  0.26796677  0.90793950  0.73772700    -0.57100
O416        O  0.30275887  0.96090879  0.73392243    -0.60400
In417      In  0.53870011  0.18916517  0.67256477     1.36900
C418        C  0.57579172  0.21661441  0.70579085     0.77200
O419        O  0.57368164  0.16995465  0.64553352    -0.61200
O420        O  0.54896101  0.20372673  0.62701937    -0.52100
C421        C  0.50486805  0.14273725  0.67025662     0.69900
O422        O  0.52780963  0.14329914  0.68521806    -0.47000
C423        C  0.50123135  0.22053962  0.70061529     0.74600
O424        O  0.57123415  0.18981036  0.70901395    -0.58800
O425        O  0.50554304  0.22456764  0.67378419    -0.48900
O426        O  0.56368349  0.22793901  0.68421029    -0.55300
C427        C  0.56975494  0.18623792  0.62402472     0.84800
O428        O  0.50051431  0.16540507  0.65582617    -0.57100
O429        O  0.51433130  0.19948263  0.71171517    -0.60400
In430      In  0.53731734  0.35243908  0.83912613     1.36900
C431        C  0.50200532  0.31946943  0.80961012     0.77200
O432        O  0.49879382  0.37341910  0.85874813    -0.61200
O433        O  0.52163327  0.39677908  0.82650818    -0.52100
C434        C  0.57307722  0.35920361  0.88378256     0.69900
O435        O  0.55249846  0.34114913  0.88393845    -0.47000
C436        C  0.57442032  0.32336074  0.80835351     0.74600
O437        O  0.50514671  0.31593027  0.83674467    -0.58800
O438        O  0.57033725  0.35011719  0.80366409    -0.48900
O439        O  0.51502055  0.34087010  0.79890498    -0.55300
C440        C  0.49989895  0.39580814  0.84319879     0.84800
O441        O  0.57377269  0.37503520  0.86151712    -0.57100
O442        O  0.56166545  0.31298107  0.83010423    -0.60400
In443      In  0.62422161  0.26849990  0.75971075     1.36900
C444        C  0.59130425  0.30449237  0.78953888     0.77200
O445        O  0.59528046  0.26110602  0.72199726    -0.61200
O446        O  0.60470545  0.22501626  0.74833035    -0.52100
C447        C  0.66449826  0.28187092  0.72180486     0.69900
O448        O  0.64202693  0.29683922  0.72467125    -0.47000
C449        C  0.65607100  0.25409308  0.80444571     0.74600
O450        O  0.60914158  0.31345318  0.77113464    -0.58800
O451        O  0.64360923  0.23516009  0.78931140    -0.48900
O452        O  0.58892465  0.27747492  0.79092841    -0.55300
C453        C  0.59256282  0.23443700  0.72588934     0.84800
O454        O  0.66637926  0.26092104  0.73889662    -0.57100
O455        O  0.65251699  0.27967375  0.79623240    -0.60400
In456      In  0.45210410  0.27162112  0.75372430     1.36900
C457        C  0.48540772  0.30027066  0.79069627     0.77200
O458        O  0.48279893  0.23586605  0.74575918    -0.61200
O459        O  0.46891720  0.25998198  0.70936538    -0.52100
C460        C  0.40946067  0.23522662  0.76492293     0.69900
O461        O  0.43209999  0.23596974  0.78000404    -0.47000
C462        C  0.42480179  0.31886738  0.73970181     0.74600
O463        O  0.46686472  0.28243598  0.79938384    -0.58800
O464        O  0.43944077  0.30518360  0.72122964    -0.48900
O465        O  0.48840599  0.30125353  0.76369543    -0.55300
C466        C  0.48363978  0.23925122  0.71879711     0.84800
O467        O  0.40896679  0.25301136  0.74448970    -0.57100
O468        O  0.42325242  0.30742495  0.76429441    -0.60400
In469      In  0.87616773  0.19954811  0.00120763     1.36900
C470        C  0.84342453  0.22659122  0.96391267     0.77200
O471        O  0.83888135  0.21143481  0.02806046    -0.61200
O472        O  0.87747218  0.23604189  0.03373713    -0.52100
C473        C  0.87907337  0.15146768  0.03228200     0.69900
O474        O  0.86266825  0.15394781  0.01053926    -0.47000
C475        C  0.92220670  0.19467961  0.96712630     0.74600
O476        O  0.83839031  0.20057532  0.97066676    -0.58800
O477        O  0.92148892  0.21199640  0.98833504    -0.48900
O478        O  0.86596299  0.23737298  0.97460944    -0.55300
C479        C  0.85093528  0.23281755  0.03973852     0.84800
O480        O  0.89445509  0.17345225  0.03720510    -0.57100
O481        O  0.89984796  0.17933733  0.96453442    -0.60400
In482      In  0.80036540  0.28682821  0.08943040     1.36900
C483        C  0.76417450  0.31548719  0.05534454     0.77200
O484        O  0.78873592  0.32314808  0.11737126    -0.61200
O485        O  0.83333608  0.31756549  0.10769364    -0.52100
C486        C  0.78634073  0.25051637  0.13113736     0.69900
O487        O  0.77199568  0.25254120  0.10811026    -0.47000
C488        C  0.83395419  0.25266582  0.05759308     0.74600
O489        O  0.75540919  0.29688727  0.07305200    -0.58800
O490        O  0.84359256  0.27541880  0.06891367    -0.48900
O491        O  0.79118404  0.31781522  0.05379808    -0.55300
C492        C  0.81412639  0.33228208  0.12026891     0.84800
O493        O  0.80757114  0.26728789  0.13269086    -0.57100
O494        O  0.80757418  0.24829255  0.06187017    -0.60400
In495      In  0.71481371  0.36335551  0.00039452     1.36900
C496        C  0.74591931  0.33401659  0.96347316     0.77200
O497        O  0.75506528  0.35481949  0.02411629    -0.61200
O498        O  0.71828236  0.32860201  0.03418265    -0.52100
C499        C  0.70775390  0.40920627  0.03449874     0.69900
O500        O  0.72575064  0.40914741  0.01377949    -0.47000
C501        C  0.66801085  0.36561930  0.96690319     0.74600
O502        O  0.74944464  0.36113581  0.96607049    -0.58800
O503        O  0.67005712  0.34874159  0.98838631    -0.48900
O504        O  0.72548056  0.32331525  0.97789944    -0.55300
C505        C  0.74506035  0.33347833  0.03774726     0.84800
O506        O  0.69331053  0.38622026  0.03668098    -0.57100
O507        O  0.68968424  0.38182067  0.96343035    -0.60400
In508      In  0.79188624  0.27755089  0.91280009     1.36900
C509        C  0.82449039  0.24410866  0.94587949     0.77200
O510        O  0.80995351  0.27101615  0.86880618    -0.61200
O511        O  0.82748227  0.30462601  0.89437389    -0.52100
C512        C  0.74658348  0.25890490  0.88411843     0.69900
O513        O  0.76561303  0.24175732  0.89329775    -0.47000
C514        C  0.76415161  0.31501329  0.94606243     0.74600
O515        O  0.80077242  0.23549708  0.93589431    -0.58800
O516        O  0.78010061  0.32334319  0.92569801    -0.48900
O517        O  0.83077932  0.26970183  0.93974110    -0.55300
C518        C  0.82838429  0.29072191  0.87103852     0.84800
O519        O  0.75116023  0.28512507  0.88938170    -0.57100
O520        O  0.76411312  0.28821024  0.95024298    -0.60400
In521      In  0.04287535  0.35068982  0.66461151     1.36900
C522        C  0.08129113  0.31884824  0.69139345     0.77200
O523        O  0.07825444  0.37642433  0.64463746    -0.61200
O524        O  0.05374494  0.39614932  0.67804458    -0.52100
C525        C  0.00758453  0.35398224  0.61909584     0.69900
O526        O  0.03007663  0.33839890  0.61890786    -0.47000
C527        C  0.00668763  0.32259312  0.69745031     0.74600
O528        O  0.07530381  0.31456554  0.66491445    -0.58800
O529        O  0.01073143  0.34946678  0.70092700    -0.48900
O530        O  0.06966917  0.34069244  0.70272123    -0.55300
C531        C  0.07465060  0.39830802  0.66051951     0.84800
O532        O  0.00431229  0.36844101  0.64202975    -0.57100
O533        O  0.01968386  0.31122632  0.67639829    -0.60400
In534      In  0.03984432  0.18973507  0.82775738     1.36900
C535        C  0.07691076  0.21958807  0.79726818     0.77200
O536        O  0.07642399  0.16686569  0.84777249    -0.61200
O537        O  0.05191507  0.14354570  0.81682647    -0.52100
C538        C  0.00765931  0.18755867  0.87518726     0.69900
O539        O  0.02900355  0.20452092  0.87285898    -0.47000
C540        C  0.00165708  0.21806283  0.79768231     0.74600
O541        O  0.07411093  0.22390058  0.82426490    -0.58800
O542        O  0.00513344  0.19110238  0.79388730    -0.48900
O543        O  0.06232049  0.19902032  0.78695849    -0.55300
C544        C  0.07337185  0.14361241  0.83393339     0.84800
O545        O  0.00390970  0.17126757  0.85359222    -0.57100
O546        O  0.01604694  0.22924699  0.81796211    -0.60400
In547      In  0.12992393  0.26437783  0.74207389     1.36900
C548        C  0.09882679  0.29926417  0.70888709     0.77200
O549        O  0.09300964  0.23527247  0.75125201    -0.61200
O550        O  0.11370807  0.25475163  0.78723694    -0.52100
C551        C  0.15636777  0.21700982  0.72737989     0.69900
O552        O  0.14349281  0.23209411  0.70872297    -0.47000
C553        C  0.17459851  0.29810461  0.75301023     0.74600
O554        O  0.11103516  0.27716770  0.69894028    -0.58800
O555        O  0.15318311  0.29658953  0.76971731    -0.48900
O556        O  0.10189957  0.30292831  0.73566625    -0.55300
C557        C  0.09499916  0.23716710  0.77831554     0.84800
O558        O  0.15619848  0.22671867  0.75278518    -0.57100
O559        O  0.17317934  0.28185894  0.73134595    -0.60400
In560      In  0.95341655  0.27154345  0.74599319     1.36900
C561        C  0.98869244  0.30494237  0.71623469     0.77200
O562        O  0.98449282  0.26327749  0.78150342    -0.61200
O563        O  0.96778678  0.22688287  0.75941562    -0.52100
C564        C  0.91241968  0.28777623  0.78193666     0.69900
O565        O  0.93620095  0.30078858  0.78053600    -0.47000
C566        C  0.92285259  0.25818435  0.70066125     0.74600
O567        O  0.97224272  0.31508829  0.73533280    -0.58800
O568        O  0.93650393  0.23905828  0.71444711    -0.48900
O569        O  0.98834559  0.27792436  0.71390597    -0.55300
C570        C  0.98386666  0.23629469  0.77918277     0.84800
O571        O  0.90981727  0.26687842  0.76490001    -0.57100
O572        O  0.92464021  0.28340051  0.71055288    -0.60400
In573      In  0.86594462  0.35592277  0.50323362     1.36900
C574        C  0.84015110  0.32547060  0.46358924     0.77200
O575        O  0.85380867  0.31578877  0.52529294    -0.61200
O576        O  0.82941519  0.35357512  0.53553059    -0.52100
C577        C  0.91375329  0.35788908  0.53526272     0.69900
O578        O  0.91212588  0.34268749  0.51254678    -0.47000
C579        C  0.86855198  0.40500356  0.47395729     0.74600
O580        O  0.86680047  0.32178859  0.46876523    -0.58800
O581        O  0.85285723  0.40233994  0.49621537    -0.48900
O582        O  0.82827573  0.34626348  0.47648977    -0.55300
C583        C  0.83269907  0.32657899  0.53858044     0.84800
O584        O  0.89114200  0.37198603  0.54075297    -0.57100
O585        O  0.88294111  0.38281045  0.46762915    -0.60400
In586      In  0.70377974  0.19496917  0.50172407     1.36900
C587        C  0.73415231  0.22717647  0.46699768     0.77200
O588        O  0.71267155  0.23235619  0.52921895    -0.61200
O589        O  0.73915683  0.19480361  0.53498155    -0.52100
C590        C  0.65606653  0.19092154  0.53313918     0.69900
O591        O  0.65853240  0.20893809  0.51269238    -0.47000
C592        C  0.69987950  0.15046536  0.46559975     0.74600
O593        O  0.70722070  0.23142418  0.47000983    -0.58800
O594        O  0.71467298  0.14933928  0.48865491    -0.48900
O595        O  0.74443105  0.20580233  0.48032241    -0.55300
C596        C  0.73436675  0.22109403  0.54118096     0.84800
O597        O  0.67750680  0.17430343  0.53611659    -0.57100
O598        O  0.68659695  0.17401890  0.46206950    -0.60400
In599      In  0.78887439  0.27257680  0.41499904     1.36900
C600        C  0.75305430  0.24525452  0.44959760     0.77200
O601        O  0.77629816  0.23851855  0.38484885    -0.61200
O602        O  0.81928981  0.23766099  0.40165205    -0.52100
C603        C  0.77870197  0.30878299  0.37263558     0.69900
O604        O  0.76252188  0.30738587  0.39448664    -0.47000
C605        C  0.82281338  0.30617046  0.44590345     0.74600
O606        O  0.74413487  0.26392952  0.43197214    -0.58800
O607        O  0.83298023  0.28595421  0.43085537    -0.48900
O608        O  0.78002871  0.24237651  0.45081400    -0.55300
C609        C  0.80035871  0.22595589  0.38588061     0.84800
O610        O  0.79935589  0.29128561  0.37253724    -0.57100
O611        O  0.79578848  0.30826220  0.44570043    -0.60400
In612      In  0.78628438  0.27259725  0.59102345     1.36900
C613        C  0.75321698  0.23870200  0.55922081     0.77200
O614        O  0.76516406  0.26085628  0.63205606    -0.61200
O615        O  0.75413007  0.30119374  0.61348595    -0.52100
C616        C  0.83259805  0.25898783  0.62047829     0.69900
O617        O  0.81777095  0.24007277  0.60775302    -0.47000
C618        C  0.81392327  0.30812184  0.55592265     0.74600
O619        O  0.77595317  0.22950216  0.57086630    -0.58800
O620        O  0.79615997  0.31738991  0.57431912    -0.48900
O621        O  0.74815192  0.26505711  0.56317381    -0.55300
C622        C  0.75070004  0.28367746  0.63400264     0.84800
O623        O  0.82338079  0.28440692  0.61840257    -0.57100
O624        O  0.81541660  0.28109391  0.55402224    -0.60400
C625        C  0.88210218  0.23243351  0.67895005    -0.20600
C626        C  0.90470017  0.25210879  0.67571138    -0.07200
C627        C  0.90603308  0.26990646  0.65109623     0.13700
C628        C  0.88279612  0.27003016  0.63202561    -0.20700
C629        C  0.85871681  0.25261234  0.63686932    -0.07200
C630        C  0.85879845  0.23256080  0.65972823     0.13700
C631        C  0.83343042  0.21313150  0.66520247    -0.24000
H632        H  0.88143311  0.21875024  0.69798550     0.14900
H633        H  0.88275514  0.28505839  0.61373808     0.15000
C634        C  0.93163257  0.28909360  0.64532402    -0.24000
H635        H  0.83680098  0.19943259  0.68455081     0.05200
H636        H  0.83009774  0.19874816  0.64636053     0.08400
H637        H  0.81374270  0.22621705  0.66874900     0.08400
H638        H  0.95157419  0.27593003  0.64470675     0.08400
H639        H  0.93371916  0.30574754  0.66233414     0.08400
H640        H  0.92961696  0.30040589  0.62427400     0.05200
C641        C  0.95892343  0.33516172  0.55442929    -0.20600
C642        C  0.93955762  0.35847663  0.55466586    -0.07200
C643        C  0.94449869  0.38122994  0.57449958     0.13700
C644        C  0.96739066  0.37929535  0.59428334    -0.20700
C645        C  0.98595490  0.35541737  0.59507485    -0.07200
C646        C  0.98189125  0.33323715  0.57439244     0.13700
C647        C  0.00081211  0.30691973  0.57390556    -0.24000
H648        H  0.95545681  0.31776480  0.53921041     0.14900
H649        H  0.97053622  0.39658548  0.60968285     0.15000
C650        C  0.92603322  0.40795509  0.57497346    -0.24000
H651        H  0.99417316  0.29151024  0.55680793     0.05200
H652        H  0.99949070  0.29562720  0.59497040     0.08400
H653        H  0.02343743  0.31326037  0.56955437     0.08400
H654        H  0.90385150  0.40256634  0.58200450     0.08400
H655        H  0.92555518  0.41785696  0.55317304     0.08400
H656        H  0.93445071  0.42433544  0.59027514     0.05200
C657        C  0.84061081  0.29287967  0.81948678    -0.20600
C658        C  0.84964710  0.29599632  0.84818784    -0.07200
C659        C  0.87911676  0.30050348  0.85438161     0.13700
C660        C  0.89901910  0.30025315  0.83166939    -0.20700
C661        C  0.89016738  0.29473178  0.80328635    -0.07200
C662        C  0.86052863  0.29220918  0.79685609     0.13700
C663        C  0.84975834  0.28877815  0.76631099    -0.24000
H664        H  0.81791610  0.28985432  0.81488375     0.14900
H665        H  0.92180402  0.30220161  0.83637522     0.15000
C666        C  0.89000541  0.30327290  0.88491271    -0.24000
H667        H  0.82585549  0.28917291  0.76526959     0.05200
H668        H  0.85694684  0.26792943  0.75714824     0.08400
H669        H  0.85799113  0.30668241  0.75278037     0.08400
H670        H  0.88405411  0.28382070  0.89747455     0.08400
H671        H  0.88052016  0.32263724  0.89522441     0.08400
H672        H  0.91381453  0.30549871  0.88570509     0.05200
C673        C  0.94856241  0.16737034  0.92919907    -0.20600
C674        C  0.94656054  0.19245396  0.94607112    -0.07200
C675        C  0.96639223  0.21505095  0.94083590     0.13700
C676        C  0.98660183  0.21237202  0.91824510    -0.20700
C677        C  0.98772260  0.18774594  0.90057407    -0.07200
C678        C  0.96879621  0.16459880  0.90677743     0.13700
C679        C  0.96977729  0.13665448  0.89020794    -0.24000
H680        H  0.93381250  0.14977472  0.93332443     0.14900
H681        H  0.00108991  0.23011889  0.91380323     0.15000
C682        C  0.96587064  0.24247240  0.95819464    -0.24000
H683        H  0.95492763  0.12034604  0.89943126     0.05200
H684        H  0.99189563  0.12757993  0.89094593     0.08400
H685        H  0.96314259  0.14021929  0.86748970     0.08400
H686        H  0.97024008  0.23762621  0.98123624     0.08400
H687        H  0.94452971  0.25304321  0.95604318     0.08400
H688        H  0.98249794  0.25797419  0.95079111     0.05200
C689        C  0.71480401  0.27731620  0.70648656    -0.20600
C690        C  0.68707719  0.28743182  0.70019303    -0.07200
C691        C  0.68148136  0.30003206  0.67295585     0.13700
C692        C  0.70348101  0.30040852  0.65213788    -0.20700
C693        C  0.73065633  0.28854373  0.65804887    -0.07200
C694        C  0.73680147  0.27820454  0.68605060     0.13700
C695        C  0.76628927  0.26818515  0.69540694    -0.24000
H696        H  0.71939914  0.26837259  0.72762298     0.14900
H697        H  0.69895415  0.30848803  0.63066008     0.15000
C698        C  0.65216493  0.31154556  0.66508543    -0.24000
H699        H  0.77258660  0.27963107  0.71549690     0.05200
H700        H  0.76578271  0.24470526  0.69981082     0.08400
H701        H  0.78334479  0.27279942  0.67938658     0.08400
H702        H  0.64640064  0.32960065  0.67968556     0.08400
H703        H  0.63582513  0.29419903  0.66691235     0.08400
H704        H  0.65158569  0.31981072  0.64260561     0.05200
C705        C  0.69936017  0.23071646  0.82426487    -0.20600
C706        C  0.67480294  0.24761068  0.82903468    -0.07200
C707        C  0.67175934  0.26291348  0.85517132     0.13700
C708        C  0.69500200  0.26396505  0.87430265    -0.20700
C709        C  0.72095233  0.24996396  0.86788154    -0.07200
C710        C  0.72272159  0.23178395  0.84349898     0.13700
C711        C  0.74990184  0.21554789  0.83643383    -0.24000
H712        H  0.70134308  0.21882467  0.80421263     0.14900
H713        H  0.69354173  0.27721060  0.89354570     0.15000
C714        C  0.64432624  0.27871756  0.86256693    -0.24000
H715        H  0.74769451  0.20294709  0.81616706     0.05200
H716        H  0.75497368  0.20030237  0.85414991     0.08400
H717        H  0.76806808  0.23083727  0.83369310     0.08400
H718        H  0.62593310  0.26345805  0.86214770     0.08400
H719        H  0.64027489  0.29630362  0.84692835     0.08400
H720        H  0.64534096  0.28848660  0.88444557     0.05200
C721        C  0.61231477  0.38644306  0.90899354    -0.20600
C722        C  0.59561657  0.36123016  0.90699294    -0.07200
C723        C  0.60249531  0.33794527  0.92555571     0.13700
C724        C  0.62558122  0.34049565  0.94521166    -0.20700
C725        C  0.64265745  0.36543420  0.94676678    -0.07200
C726        C  0.63562900  0.38887053  0.92842570     0.13700
C727        C  0.65230021  0.41669836  0.92925496    -0.24000
H728        H  0.60732828  0.40438172  0.89490071     0.14900
H729        H  0.63088500  0.32237569  0.95894242     0.15000
C730        C  0.58650429  0.30977405  0.92407972    -0.24000
H731        H  0.64283056  0.43314799  0.91468600     0.05200
H732        H  0.67480332  0.41297688  0.92212283     0.08400
H733        H  0.65216400  0.42561163  0.95150136     0.08400
H734        H  0.58816223  0.30061306  0.90199404     0.08400
H735        H  0.56354560  0.31315830  0.92979241     0.08400
H736        H  0.59544383  0.29366484  0.93934552     0.05200
C737        C  0.59209599  0.21107870  0.58159591    -0.20600
C738        C  0.58905013  0.18585672  0.59811961    -0.07200
C739        C  0.60585266  0.16149412  0.59055273     0.13700
C740        C  0.62644340  0.16369231  0.56842010    -0.20700
C741        C  0.63082326  0.18940154  0.55313023    -0.07200
C742        C  0.61270162  0.21321369  0.55928053     0.13700
C743        C  0.61567020  0.24132426  0.54338581    -0.24000
H744        H  0.57908035  0.22971239  0.58695489     0.14900
H745        H  0.63974759  0.14516266  0.56341535     0.15000
C746        C  0.60217842  0.13286756  0.60538599    -0.24000
H747        H  0.60013268  0.25769498  0.55132917     0.05200
H748        H  0.61141815  0.23795466  0.52004848     0.08400
H749        H  0.63771220  0.25008089  0.54642159     0.08400
H750        H  0.57929334  0.12603634  0.60417554     0.08400
H751        H  0.60906374  0.13441466  0.62825230     0.08400
H752        H  0.61542787  0.11578703  0.59511024     0.05200
C753        C  0.48525406  0.09795048  0.69320429    -0.20600
C754        C  0.48398530  0.11811386  0.67056810    -0.07200
C755        C  0.46190999  0.11503627  0.64957814     0.13700
C756        C  0.44142061  0.09296695  0.65248035    -0.20700
C757        C  0.44194284  0.07350580  0.67568053    -0.07200
C758        C  0.46463331  0.07577437  0.69606465     0.13700
C759        C  0.46698888  0.05549207  0.72129082    -0.24000
H760        H  0.50208875  0.09999943  0.70930241     0.14900
H761        H  0.42445387  0.09121186  0.63649674     0.15000
C762        C  0.45961299  0.13467646  0.62377347    -0.24000
H763        H  0.48583454  0.06059405  0.73515417     0.05200
H764        H  0.46964772  0.03309346  0.71336667     0.08400
H765        H  0.44736544  0.05705573  0.73488096     0.08400
H766        H  0.48018842  0.13450872  0.61157311     0.08400
H767        H  0.45439975  0.15689022  0.63085644     0.08400
H768        H  0.44228718  0.12780421  0.60873144     0.05200
C769        C  0.19604788  0.19240616  0.70283113    -0.20600
C770        C  0.17181003  0.19056527  0.72068683    -0.07200
C771        C  0.16699407  0.16573348  0.73743287     0.13700
C772        C  0.18875954  0.14513388  0.73929745    -0.20700
C773        C  0.21486176  0.14906200  0.72473599    -0.07200
C774        C  0.21792042  0.17171231  0.70471220     0.13700
C775        C  0.24516722  0.17560828  0.68752727    -0.24000
H776        H  0.19929062  0.21152095  0.68981277     0.14900
H777        H  0.18634968  0.12711633  0.75396914     0.15000
C778        C  0.13952643  0.16165750  0.75434501    -0.24000
H779        H  0.24402856  0.19485279  0.67337296     0.05200
H780        H  0.24872203  0.15646690  0.67361822     0.08400
H781        H  0.26381077  0.17832077  0.70230029     0.08400
H782        H  0.12079256  0.16274991  0.73948081     0.08400
H783        H  0.13730403  0.17857020  0.77110227     0.08400
H784        H  0.13901656  0.14044980  0.76538647     0.05200
C785        C  0.39256105  0.18690590  0.77996734    -0.20600
C786        C  0.38578585  0.21458041  0.76993444    -0.07200
C787        C  0.35682853  0.22141899  0.76331076     0.13700
C788        C  0.33580390  0.19986422  0.76500128    -0.20700
C789        C  0.34285129  0.17169932  0.77326324    -0.07200
C790        C  0.37148534  0.16527347  0.78157347     0.13700
C791        C  0.38039270  0.13538611  0.79053294    -0.24000
H792        H  0.41471690  0.18178851  0.78523313     0.14900
H793        H  0.31379923  0.20484520  0.75902890     0.15000
C794        C  0.34776504  0.25139197  0.75468967    -0.24000
H795        H  0.40378034  0.13413375  0.79541118     0.05200
H796        H  0.37574301  0.11988278  0.77287348     0.08400
H797        H  0.36853072  0.12898931  0.81029891     0.08400
H798        H  0.35715630  0.25712028  0.73345985     0.08400
H799        H  0.35494534  0.26708445  0.77129794     0.08400
H800        H  0.32400198  0.25325004  0.75264763     0.05200
C801        C  0.13612784  0.09607449  0.85890167    -0.20600
C802        C  0.13464072  0.07274814  0.83966443    -0.07200
C803        C  0.11160710  0.07197500  0.81951985     0.13700
C804        C  0.09157397  0.09489940  0.81867385    -0.20700
C805        C  0.09391486  0.11886118  0.83718564    -0.07200
C806        C  0.11655763  0.11907503  0.85785341     0.13700
C807        C  0.12096325  0.14354152  0.87886306    -0.24000
H808        H  0.15343553  0.09685416  0.87458667     0.14900
H809        H  0.07432946  0.09438286  0.80290034     0.15000
C810        C  0.10811345  0.04745768  0.79851399    -0.24000
H811        H  0.13923797  0.13950084  0.89379786     0.05200
H812        H  0.10137754  0.14645521  0.89228241     0.08400
H813        H  0.12597282  0.16364689  0.86696245     0.08400
H814        H  0.10570256  0.02690641  0.81047320     0.08400
H815        H  0.12713031  0.04628681  0.78405507     0.08400
H816        H  0.08874807  0.05020345  0.78470693     0.05200
C817        C  0.24571474  0.33751662  0.74552503    -0.20600
C818        C  0.23878301  0.36402720  0.75832391    -0.07200
C819        C  0.21207669  0.36717798  0.77269928     0.13700
C820        C  0.19225405  0.34445766  0.77197247    -0.20700
C821        C  0.19834234  0.31878991  0.75724955    -0.07200
C822        C  0.22594278  0.31475108  0.74493765     0.13700
C823        C  0.23491627  0.28660396  0.73136315    -0.24000
H824        H  0.26650596  0.33481993  0.73524906     0.14900
H825        H  0.17124616  0.34735846  0.78173937     0.15000
C826        C  0.20356386  0.39473522  0.78763608    -0.24000
H827        H  0.25802139  0.28671418  0.72515042     0.05200
H828        H  0.22227511  0.28247532  0.71147594     0.08400
H829        H  0.23164304  0.26876200  0.74694759     0.08400
H830        H  0.20357546  0.41279211  0.77196229     0.08400
H831        H  0.21883063  0.39936538  0.80548947     0.08400
H832        H  0.18165029  0.39337095  0.79713648     0.05200
C833        C  0.38781624  0.38939182  0.75152769    -0.20600
C834        C  0.36784048  0.38879652  0.72884592    -0.07200
C835        C  0.37131692  0.36887511  0.70607112     0.13700
C836        C  0.39253883  0.34750061  0.70859195    -0.20700
C837        C  0.40965312  0.34576893  0.73346799    -0.07200
C838        C  0.40876438  0.36805385  0.75418277     0.13700
C839        C  0.42930426  0.36909988  0.77947818    -0.24000
H840        H  0.38568539  0.40545696  0.76839627     0.14900
H841        H  0.39398004  0.33067239  0.69242392     0.15000
C842        C  0.35137407  0.36858681  0.68043430    -0.24000
H843        H  0.42680311  0.38927162  0.79213184     0.05200
H844        H  0.45185960  0.36813071  0.77158283     0.08400
H845        H  0.42530965  0.35092382  0.79441863     0.08400
H846        H  0.35272828  0.38949847  0.66895070     0.08400
H847        H  0.32888422  0.36487629  0.68765339     0.08400
H848        H  0.35711087  0.35130620  0.66488365     0.05200
C849        C  0.13210872  0.45281469  0.63743919    -0.20600
C850        C  0.13594458  0.46889475  0.66287110    -0.07200
C851        C  0.11764867  0.46313098  0.68668347     0.13700
C852        C  0.09700537  0.44094111  0.68466620    -0.20700
C853        C  0.09435342  0.42379211  0.65976899    -0.07200
C854        C  0.11182093  0.43039500  0.63556116     0.13700
C855        C  0.10936618  0.41405551  0.60753216    -0.24000
H856        H  0.14570526  0.45730312  0.61896988     0.14900
H857        H  0.08366736  0.43612513  0.70324532     0.15000
C858        C  0.12050047  0.47922526  0.71479118    -0.24000
H859        H  0.12319767  0.42348283  0.59042966     0.05200
H860        H  0.08675917  0.41462787  0.59972553     0.08400
H861        H  0.11637506  0.39143874  0.61058729     0.08400
H862        H  0.11628858  0.50247098  0.71127168     0.08400
H863        H  0.14248919  0.47620110  0.72372886     0.08400
H864        H  0.10489709  0.47146087  0.73118731     0.05200
C865        C  0.42805661  0.43558735  0.85343828    -0.20600
C866        C  0.43404421  0.46288675  0.84178021    -0.07200
C867        C  0.46228388  0.46816255  0.83132274     0.13700
C868        C  0.48321937  0.44608109  0.83239876    -0.20700
C869        C  0.47708321  0.41873635  0.84387810    -0.07200
C870        C  0.44890324  0.41359601  0.85461499     0.13700
C871        C  0.44003820  0.38476043  0.86661860    -0.24000
H872        H  0.40657217  0.43113224  0.86138484     0.14900
H873        H  0.50465310  0.45026479  0.82415409     0.15000
C874        C  0.47079049  0.49699126  0.81921468    -0.24000
H875        H  0.41694740  0.38435891  0.87285338     0.05200
H876        H  0.45278347  0.37982522  0.88626978     0.08400
H877        H  0.44335901  0.36772974  0.85011765     0.08400
H878        H  0.46715470  0.51402774  0.83563911     0.08400
H879        H  0.45798190  0.50168933  0.79954972     0.08400
H880        H  0.49389894  0.49758798  0.81306279     0.05200
C881        C  0.29469727  0.86744194  0.88710874    -0.20600
C882        C  0.31160189  0.84263656  0.88429617    -0.07200
C883        C  0.33420600  0.84186830  0.86394638     0.13700
C884        C  0.33656900  0.86440500  0.84392884    -0.20700
C885        C  0.31659681  0.88701203  0.84412205    -0.07200
C886        C  0.29697668  0.88979727  0.86715777     0.13700
C887        C  0.27729502  0.91554826  0.86967142    -0.24000
H888        H  0.27798640  0.86820759  0.90342321     0.14900
H889        H  0.35181014  0.86272997  0.82629971     0.15000
C890        C  0.35380952  0.81615808  0.86144256    -0.24000
H891        H  0.26399637  0.91464359  0.88957196     0.05200
H892        H  0.26241205  0.91660877  0.85096920     0.08400
H893        H  0.29036570  0.93554069  0.87044330     0.08400
H894        H  0.34099998  0.79658038  0.85651168     0.08400
H895        H  0.36557462  0.81301762  0.88206753     0.08400
H896        H  0.36996506  0.81899022  0.84401307     0.05200
C897        C  0.27676481  0.72425180  0.82516279    -0.20600
C898        C  0.26264809  0.71718605  0.85096578    -0.07200
C899        C  0.24794189  0.69056764  0.85297430     0.13700
C900        C  0.24997149  0.67082649  0.83004859    -0.20700
C901        C  0.26680121  0.67680206  0.80560973    -0.07200
C902        C  0.27921915  0.70444970  0.80253491     0.13700
C903        C  0.29548728  0.71332602  0.77577597    -0.24000
H904        H  0.28726437  0.74498570  0.82321284     0.14900
H905        H  0.23998233  0.64985912  0.83211965     0.15000
C906        C  0.23160197  0.68198806  0.87969505    -0.24000
H907        H  0.30130552  0.73650847  0.77625769     0.05200
H908        H  0.28197348  0.70959145  0.75634941     0.08400
H909        H  0.31589494  0.70104794  0.77396614     0.08400
H910        H  0.21397722  0.69761206  0.88378535     0.08400
H911        H  0.24639970  0.68138119  0.89851675     0.08400
H912        H  0.22174050  0.66032207  0.87746387     0.05200
C913        C  0.17040511  0.92277637  0.93403825    -0.20600
C914        C  0.19199801  0.92227692  0.95538301    -0.07200
C915        C  0.21291156  0.94454360  0.95522272     0.13700
C916        C  0.21282953  0.96505942  0.93281726    -0.20700
C917        C  0.19246401  0.96428833  0.91036660    -0.07200
C918        C  0.17030072  0.94327059  0.91164867     0.13700
C919        C  0.14642129  0.94195603  0.88958849    -0.24000
H920        H  0.15379071  0.90638958  0.93431674     0.14900
H921        H  0.22954336  0.98132827  0.93236303     0.15000
C922        C  0.23588691  0.94669516  0.97807650    -0.24000
H923        H  0.13012789  0.92534068  0.89507620     0.05200
H924        H  0.15531046  0.93632502  0.86809164     0.08400
H925        H  0.13517804  0.96302580  0.88853412     0.08400
H926        H  0.24972174  0.92722301  0.97757833     0.08400
H927        H  0.22572246  0.94899581  0.99963789     0.08400
H928        H  0.25005186  0.96565897  0.97472553     0.05200
C929        C  0.38621257  0.60828585  0.94007199    -0.20600
C930        C  0.36081257  0.61021736  0.95647327    -0.07200
C931        C  0.33842738  0.59024145  0.95082554     0.13700
C932        C  0.34147206  0.57019253  0.92808970    -0.20700
C933        C  0.36622641  0.56943878  0.91058591    -0.07200
C934        C  0.38930935  0.58828126  0.91743571     0.13700
C935        C  0.41747649  0.58750700  0.90125741    -0.24000
H936        H  0.40372720  0.62305312  0.94460417     0.14900
H937        H  0.32382352  0.55569495  0.92326228     0.15000
C938        C  0.31078035  0.59055347  0.96780293    -0.24000
H939        H  0.43370542  0.60216136  0.91099286     0.05200
H940        H  0.41421894  0.59450836  0.87861478     0.08400
H941        H  0.42649631  0.56537484  0.90171687     0.08400
H942        H  0.30004937  0.61178664  0.96551401     0.08400
H943        H  0.31539252  0.58626494  0.99091075     0.08400
H944        H  0.29549955  0.57380477  0.96017188     0.05200
C945        C  0.17393555  0.73354741  0.19271846    -0.20600
C946        C  0.15836877  0.75936106  0.19493251    -0.07200
C947        C  0.15965527  0.77976106  0.17232456     0.13700
C948        C  0.17887401  0.77520260  0.14967943    -0.20700
C949        C  0.19705995  0.75118828  0.14930886    -0.07200
C950        C  0.19368208  0.72934117  0.17013561     0.13700
C951        C  0.21233929  0.70285455  0.16983332    -0.24000
H952        H  0.17231513  0.71769647  0.20979844     0.14900
H953        H  0.18126083  0.79158230  0.13317877     0.15000
C954        C  0.14148694  0.80676601  0.17212029    -0.24000
H955        H  0.20717850  0.68822225  0.18805107     0.05200
H956        H  0.23535621  0.70908475  0.17162868     0.08400
H957        H  0.20893358  0.69086792  0.14937939     0.08400
H958        H  0.14850746  0.82168588  0.18944837     0.08400
H959        H  0.11844059  0.80114263  0.17511914     0.08400
H960        H  0.14343709  0.81858947  0.15138626     0.05200
C961        C  0.10416549  0.83832958  0.06346870    -0.20600
C962        C  0.12640640  0.85889721  0.06393210    -0.07200
C963        C  0.12586831  0.88030655  0.08582198     0.13700
C964        C  0.10436803  0.87951790  0.10716162    -0.20700
C965        C  0.08296305  0.85813547  0.10766322    -0.07200
C966        C  0.08258665  0.83757075  0.08496265     0.13700
C967        C  0.06010549  0.81426731  0.08347005    -0.24000
H968        H  0.10415680  0.82207277  0.04667249     0.14900
H969        H  0.10463608  0.89571084  0.12401919     0.15000
C970        C  0.14770955  0.90432107  0.08712223    -0.24000
H971        H  0.06317293  0.80011067  0.06438059     0.05200
H972        H  0.03836290  0.82405901  0.08177395     0.08400
H973        H  0.06136131  0.80057148  0.10304446     0.08400
H974        H  0.14795659  0.91616553  0.06632047     0.08400
H975        H  0.16940847  0.89550019  0.09185838     0.08400
H976        H  0.14265454  0.92010438  0.10441415     0.05200
C977        C  0.78676888  0.15681930  0.34698935    -0.20600
C978        C  0.80659757  0.15942685  0.32439163    -0.07200
C979        C  0.82811354  0.18081213  0.32541619     0.13700
C980        C  0.82754674  0.20098209  0.34793012    -0.20700
C981        C  0.80563258  0.20019174  0.36868387    -0.07200
C982        C  0.78589904  0.17713023  0.36917934     0.13700
C983        C  0.76332505  0.17445630  0.39247191    -0.24000
H984        H  0.77057175  0.14002233  0.34611221     0.14900
H985        H  0.84260279  0.21883785  0.34786237     0.15000
C986        C  0.84997651  0.18384046  0.30161853    -0.24000
H987        H  0.75069706  0.15426715  0.39024003     0.05200
H988        H  0.74795816  0.19270030  0.39137621     0.08400
H989        H  0.77385208  0.17428476  0.41399489     0.08400
H990        H  0.83888359  0.18747257  0.28069570     0.08400
H991        H  0.86312932  0.16393822  0.30020880     0.08400
H992        H  0.86474688  0.20224260  0.30551668     0.05200
C993        C  0.76627180  0.20336111  0.14570077    -0.20600
C994        C  0.77963841  0.22925922  0.15381159    -0.07200
C995        C  0.78761431  0.23353992  0.18295874     0.13700
C996        C  0.78410288  0.21098442  0.20260830    -0.20700
C997        C  0.77297451  0.18424097  0.19401795    -0.07200
C998        C  0.76287454  0.18069127  0.16543020     0.13700
C999        C  0.74991157  0.15278825  0.15512773    -0.24000
H1000       H  0.75972729  0.20029393  0.12344000     0.14900
H1001       H  0.79113914  0.21392751  0.22473461     0.15000
C1002       C  0.79981511  0.26168761  0.19369151    -0.24000
H1003       H  0.74369998  0.15380219  0.13199082     0.05200
H1004       H  0.73020954  0.14793911  0.16777117     0.08400
H1005       H  0.76571708  0.13503912  0.15769164     0.08400
H1006       H  0.78503206  0.27959847  0.18800191     0.08400
H1007       H  0.82133818  0.26555636  0.18408588     0.08400
H1008       H  0.80254549  0.26174863  0.21751377     0.05200
C1009       C  0.85907290  0.84845798  0.28690539    -0.20600
C1010       C  0.88166951  0.84701318  0.26696013    -0.16800
C1011       C  0.88402580  0.86781381  0.24494450     0.13700
C1012       C  0.86269009  0.88877244  0.24235062    -0.20700
C1013       C  0.83896428  0.88921586  0.26099254    -0.07200
C1014       C  0.83733075  0.86927504  0.28399832     0.13700
C1015       C  0.81193470  0.86859121  0.30421784    -0.24000
H1016       H  0.85754667  0.83225812  0.30366796     0.14900
H1017       H  0.86406767  0.90440736  0.22502721     0.15000
C1018       C  0.90894157  0.86784819  0.22399421    -0.24000
H1019       H  0.81370062  0.85078462  0.32009125     0.05200
H1020       H  0.79175572  0.86540888  0.29172586     0.08400
H1021       H  0.81067814  0.88909285  0.31645905     0.08400
H1022       H  0.90854164  0.84811888  0.21050155     0.08400
H1023       H  0.92959780  0.86883675  0.23604626     0.08400
H1024       H  0.90810242  0.88662009  0.20919308     0.05200
C1025       C  0.95048587  0.97096685  0.19073083    -0.20600
C1026       C  0.93232500  0.97190936  0.16640895    -0.07200
C1027       C  0.93701487  0.95168613  0.14390385     0.13700
C1028       C  0.95869062  0.93077200  0.14686183    -0.20700
C1029       C  0.97616080  0.92915392  0.17155314    -0.07200
C1030       C  0.97218232  0.94988243  0.19368527     0.13700
C1031       C  0.98984463  0.94937563  0.22096735    -0.24000
H1032       H  0.94716306  0.98635271  0.20801869     0.14900
H1033       H  0.96175180  0.91517818  0.12971848     0.15000
C1034       C  0.91954693  0.95183439  0.11644859    -0.24000
H1035       H  0.98331199  0.96666511  0.23619267     0.05200
H1036       H  0.01292892  0.95266927  0.21573088     0.08400
H1037       H  0.98698722  0.92842923  0.23211587     0.08400
H1038       H  0.92101506  0.97327731  0.10599996     0.08400
H1039       H  0.89673801  0.94657059  0.12121881     0.08400
H1040       H  0.92740446  0.93560050  0.10069393     0.05200
C1041       C  0.85981561  0.08123752  0.07141587    -0.20600
C1042       C  0.87870174  0.08237662  0.09513270    -0.07200
C1043       C  0.90008159  0.10422808  0.09564437     0.13700
C1044       C  0.90028188  0.12536515  0.07399192    -0.20700
C1045       C  0.87986323  0.12566697  0.05159973    -0.07200
C1046       C  0.86005269  0.10248166  0.04970493     0.13700
C1047       C  0.83852781  0.10017012  0.02546981    -0.24000
H1048       H  0.84387759  0.06422106  0.07041157     0.14900
H1049       H  0.91612736  0.14246665  0.07519138     0.15000
C1050       C  0.92271267  0.10597407  0.11897086    -0.24000
H1051       H  0.82521189  0.08039395  0.02723141     0.05200
H1052       H  0.84997433  0.09931871  0.00445586     0.08400
H1053       H  0.82368530  0.11889003  0.02594005     0.08400
H1054       H  0.93473426  0.08534674  0.12016671     0.08400
H1055       H  0.91252727  0.11084154  0.14007218     0.08400
H1056       H  0.93861821  0.12330844  0.11471032     0.05200
C1057       C  0.71461205  0.08245007  0.42033971    -0.20600
C1058       C  0.69408333  0.08533066  0.39815702    -0.07200
C1059       C  0.67454430  0.10883842  0.39955547     0.13700
C1060       C  0.67693482  0.12903189  0.42205735    -0.20700
C1061       C  0.69799576  0.12670502  0.44373291    -0.07200
C1062       C  0.71687290  0.10269824  0.44298872     0.13700
C1063       C  0.73994882  0.09847489  0.46544363    -0.24000
H1064       H  0.72953892  0.06452088  0.41964056     0.14900
H1065       H  0.66214649  0.14708807  0.42253495     0.15000
C1066       C  0.65084978  0.11307921  0.37766379    -0.24000
H1067       H  0.75291494  0.07881387  0.46126540     0.05200
H1068       H  0.72995831  0.09612429  0.48706810     0.08400
H1069       H  0.75485265  0.11715306  0.46539629     0.08400
H1070       H  0.63692186  0.09367154  0.37690009     0.08400
H1071       H  0.66020893  0.11733654  0.35606134     0.08400
H1072       H  0.63688283  0.13172415  0.38310971     0.05200
C1073       C  0.78438257  0.34805694  0.30152089    -0.20600
C1074       C  0.77619308  0.37587966  0.30990877    -0.07200
C1075       C  0.76585825  0.38075140  0.33819378     0.13700
C1076       C  0.76537602  0.35784141  0.35779908    -0.20700
C1077       C  0.77512422  0.33041595  0.34984055    -0.07200
C1078       C  0.78375855  0.32513246  0.32106183     0.13700
C1079       C  0.79193710  0.29544088  0.31064660    -0.24000
H1080       H  0.79175577  0.34434117  0.27962565     0.14900
H1081       H  0.75870564  0.36171806  0.37989188     0.15000
C1082       C  0.75683441  0.41022556  0.34838220    -0.24000
H1083       H  0.79560719  0.29501390  0.28696215     0.05200
H1084       H  0.77433464  0.28003730  0.31558069     0.08400
H1085       H  0.81215790  0.28820762  0.32111751     0.08400
H1086       H  0.73797529  0.41772435  0.33573382     0.08400
H1087       H  0.77494047  0.42561499  0.34578524     0.08400
H1088       H  0.75052770  0.41016905  0.37150374     0.05200
C1089       C  0.79970308  0.38062302  0.13507835    -0.20600
C1090       C  0.81972061  0.35818118  0.13752212    -0.07200
C1091       C  0.84067945  0.35893946  0.15960314     0.13700
C1092       C  0.83865615  0.38030648  0.18099747    -0.20700
C1093       C  0.81619829  0.40046863  0.18035719    -0.07200
C1094       C  0.79772872  0.40189725  0.15624295     0.13700
C1095       C  0.77533191  0.42529247  0.15327415    -0.24000
H1096       H  0.78423964  0.38039288  0.11750439     0.14900
H1097       H  0.85297527  0.37970795  0.19948340     0.15000
C1098       C  0.86358526  0.33612434  0.16191570    -0.24000
H1099       H  0.76357645  0.42373232  0.13243490     0.05200
H1100       H  0.78594689  0.44668436  0.15417246     0.08400
H1101       H  0.75920394  0.42380854  0.17084743     0.08400
H1102       H  0.87712744  0.33633527  0.14217886     0.08400
H1103       H  0.85345883  0.31462116  0.16434423     0.08400
H1104       H  0.87787054  0.33981287  0.18079821     0.05200
C1105       C  0.85951388  0.67297585  0.27673278    -0.20600
C1106       C  0.84285698  0.66857190  0.25187815    -0.07200
C1107       C  0.84872230  0.68460470  0.22663570     0.13700
C1108       C  0.86952231  0.70647828  0.22785683    -0.20700
C1109       C  0.88418908  0.71240587  0.25363367    -0.07200
C1110       C  0.88014287  0.69464337  0.27798515     0.13700
C1111       C  0.89763262  0.69809815  0.30529927    -0.24000
H1112       H  0.85576377  0.65988839  0.29573043     0.14900
H1113       H  0.87340313  0.71982654  0.20908526     0.15000
C1114       C  0.83250914  0.67968802  0.19890690    -0.24000
H1115       H  0.89318268  0.68062878  0.32102728     0.05200
H1116       H  0.89234065  0.71874224  0.31609282     0.08400
H1117       H  0.92097471  0.69743153  0.30011642     0.08400
H1118       H  0.80914533  0.68340362  0.20237986     0.08400
H1119       H  0.83608865  0.65730605  0.19130081     0.08400
H1120       H  0.83982139  0.69446547  0.18157086     0.05200
C1121       C  0.89064437  0.46083258  0.41794247    -0.20600
C1122       C  0.86550170  0.47747633  0.41556759    -0.07200
C1123       C  0.84242273  0.47199841  0.43481307     0.13700
C1124       C  0.84473113  0.44927126  0.45483597    -0.20700
C1125       C  0.86915059  0.43138401  0.45570160    -0.07200
C1126       C  0.89277581  0.43789743  0.43749205     0.13700
C1127       C  0.92045098  0.42088343  0.43833281    -0.24000
H1128       H  0.90860774  0.46521005  0.40367097     0.14900
H1129       H  0.82668493  0.44450923  0.46887464     0.15000
C1130       C  0.81474644  0.48888060  0.43348648    -0.24000
H1131       H  0.93729598  0.43056202  0.42437802     0.05200
H1132       H  0.91673354  0.39867318  0.43036749     0.08400
H1133       H  0.92895224  0.42029668  0.46073005     0.08400
H1134       H  0.80480469  0.48649863  0.41181047     0.08400
H1135       H  0.81909789  0.51194730  0.43794358     0.08400
H1136       H  0.79887927  0.48126013  0.44969200     0.05200
C1137       C  0.92000467  0.61560802  0.36872896    -0.20600
C1138       C  0.92711598  0.58907416  0.35601704    -0.07200
C1139       C  0.95577025  0.58478663  0.34635951     0.13700
C1140       C  0.97568290  0.60766798  0.34789446    -0.20700
C1141       C  0.96808167  0.63471233  0.35928399    -0.07200
C1142       C  0.93989662  0.63831343  0.37065006     0.13700
C1143       C  0.92999759  0.66612427  0.38426152    -0.24000
H1144       H  0.89829462  0.61898926  0.37665401     0.14900
H1145       H  0.99733303  0.60445817  0.33975713     0.15000
C1146       C  0.96576503  0.55620093  0.33469914    -0.24000
H1147       H  0.90734105  0.66487848  0.39183876     0.05200
H1148       H  0.93120582  0.68387524  0.36829339     0.08400
H1149       H  0.94357964  0.67116127  0.40333693     0.08400
H1150       H  0.95417298  0.55105982  0.31439978     0.08400
H1151       H  0.96182302  0.53908623  0.35093660     0.08400
H1152       H  0.98916842  0.55630167  0.32975518     0.05200
C1153       C  0.67855331  0.45889268  0.09390509    -0.20600
C1154       C  0.70251642  0.47629801  0.10004828    -0.07200
C1155       C  0.72749207  0.47311648  0.08267049     0.13700
C1156       C  0.72802594  0.45212284  0.06053743    -0.20700
C1157       C  0.70456362  0.43358887  0.05556297    -0.07200
C1158       C  0.67923044  0.43760240  0.07225603     0.13700
C1159       C  0.65265279  0.41950449  0.06769292    -0.24000
H1160       H  0.65924335  0.46138333  0.10680983     0.14900
H1161       H  0.74747708  0.44927646  0.04791872     0.15000
C1162       C  0.75422959  0.49061733  0.08822483    -0.24000
H1163       H  0.63432637  0.42707079  0.08110228     0.05200
H1164       H  0.65701015  0.39686254  0.07388875     0.08400
H1165       H  0.64586837  0.42056324  0.04473524     0.08400
H1166       H  0.76191199  0.48687972  0.11061366     0.08400
H1167       H  0.74951236  0.51382024  0.08509414     0.08400
H1168       H  0.77197277  0.48470243  0.07328274     0.05200
C1169       C  0.70268421  0.72915777  0.26827036    -0.20600
C1170       C  0.67382747  0.72222059  0.27365212    -0.07200
C1171       C  0.66670797  0.69467563  0.28438144     0.13700
C1172       C  0.68846264  0.67380047  0.28682188    -0.20700
C1173       C  0.71682613  0.68003248  0.27859021    -0.07200
C1174       C  0.72439098  0.70848405  0.27091698     0.13700
C1175       C  0.75525018  0.71720779  0.26549393    -0.24000
H1176       H  0.70812336  0.75064570  0.26095061     0.14900
H1177       H  0.68293300  0.65204031  0.29314717     0.15000
C1178       C  0.63607104  0.68660239  0.29127942    -0.24000
H1179       H  0.75726785  0.74078250  0.26209342     0.05200
H1180       H  0.76378669  0.70647699  0.24590882     0.08400
H1181       H  0.76872507  0.71136068  0.28441366     0.08400
H1182       H  0.62238163  0.68921293  0.27179446     0.08400
H1183       H  0.62779294  0.70057799  0.30885803     0.08400
H1184       H  0.63433236  0.66390604  0.29856342     0.05200
C1185       C  0.69877836  0.83332619  0.21732640    -0.20600
C1186       C  0.66996406  0.84203714  0.21813454    -0.07200
C1187       C  0.66274637  0.87135551  0.21537840     0.13700
C1188       C  0.68497040  0.89172336  0.21373760    -0.20700
C1189       C  0.71386035  0.88312624  0.21584006    -0.07200
C1190       C  0.72095080  0.85357231  0.21641140     0.13700
C1191       C  0.75178576  0.84328845  0.21689645    -0.24000
H1192       H  0.70394439  0.81064809  0.21939437     0.14900
H1193       H  0.67976252  0.91446638  0.21346060     0.15000
C1194       C  0.63186511  0.88122720  0.21663887    -0.24000
H1195       H  0.75316912  0.81945871  0.21550548     0.05200
H1196       H  0.76252998  0.84987945  0.23723553     0.08400
H1197       H  0.76361807  0.85243542  0.19822703     0.08400
H1198       H  0.62205649  0.87462707  0.23746503     0.08400
H1199       H  0.61954268  0.87142082  0.19860556     0.08400
H1200       H  0.63008859  0.90499603  0.21483598     0.05200
C1201       C  0.37468940  0.79778915  0.17807021    -0.20600
C1202       C  0.37212186  0.78156614  0.20346920    -0.07200
C1203       C  0.34630220  0.76634424  0.20890605     0.13700
C1204       C  0.32507556  0.76533770  0.18754687    -0.20700
C1205       C  0.32858224  0.77950723  0.16109001    -0.07200
C1206       C  0.35313454  0.79707196  0.15676231     0.13700
C1207       C  0.35741069  0.81416430  0.12948381    -0.24000
H1208       H  0.39418111  0.81003568  0.17429843     0.14900
H1209       H  0.30577445  0.75282078  0.19135894     0.15000
C1210       C  0.34062078  0.75130419  0.23721799    -0.24000
H1211       H  0.37801256  0.82630141  0.12977999     0.05200
H1212       H  0.33969246  0.83002736  0.12703793     0.08400
H1213       H  0.35780999  0.79949853  0.11055642     0.08400
H1214       H  0.34393152  0.76654635  0.25540672     0.08400
H1215       H  0.35505889  0.73245214  0.23969250     0.08400
H1216       H  0.31816877  0.74318810  0.23857069     0.05200
C1217       C  0.46485951  0.70268808  0.08806884    -0.20600
C1218       C  0.46774089  0.67978057  0.10764373    -0.07200
C1219       C  0.44882144  0.65593042  0.10485844     0.13700
C1220       C  0.42753953  0.65603923  0.08313229    -0.20700
C1221       C  0.42403188  0.67944335  0.06420408    -0.07200
C1222       C  0.44322494  0.70306491  0.06674795     0.13700
C1223       C  0.44051895  0.72941621  0.04800021    -0.24000
H1224       H  0.47907897  0.72106952  0.09008446     0.14900
H1225       H  0.41307012  0.63781554  0.08133034     0.15000
C1226       C  0.45071891  0.63019232  0.12454988    -0.24000
H1227       H  0.45680097  0.74602267  0.05358747     0.05200
H1228       H  0.41890705  0.73924636  0.05089181     0.08400
H1229       H  0.44381430  0.72349931  0.02502943     0.08400
H1230       H  0.44558673  0.63664417  0.14702897     0.08400
H1231       H  0.47270019  0.62083179  0.12358958     0.08400
H1232       H  0.43520784  0.61308143  0.11829924     0.05200
C1233       C  0.58049881  0.59680639  0.18368261    -0.20600
C1234       C  0.58455971  0.62237547  0.16790770    -0.07200
C1235       C  0.61053658  0.62552822  0.15203162     0.13700
C1236       C  0.63159176  0.60377792  0.15311617    -0.20700
C1237       C  0.62806029  0.57859218  0.16956970    -0.07200
C1238       C  0.60171107  0.57494067  0.18468146     0.13700
C1239       C  0.59569799  0.54829937  0.20211467    -0.24000
H1240       H  0.56066776  0.59401536  0.19569990     0.14900
H1241       H  0.65146474  0.60689231  0.14126308     0.15000
C1242       C  0.61699498  0.65202420  0.13436022    -0.24000
H1243       H  0.57388910  0.54882818  0.21194850     0.05200
H1244       H  0.61160155  0.54641317  0.21989988     0.08400
H1245       H  0.59689258  0.52901936  0.18799268     0.08400
H1246       H  0.61702521  0.67137393  0.14844453     0.08400
H1247       H  0.60072301  0.65442311  0.11696506     0.08400
H1248       H  0.63844707  0.65082556  0.12383506     0.05200
C1249       C  0.59444680  0.94368540  0.35824285    -0.20600
C1250       C  0.57815265  0.93940981  0.33301181    -0.07200
C1251       C  0.58334372  0.95762675  0.30906041     0.13700
C1252       C  0.60583186  0.97801712  0.31037962    -0.20700
C1253       C  0.62351994  0.98076767  0.33489952    -0.07200
C1254       C  0.61688908  0.96401051  0.35959220     0.13700
C1255       C  0.63317778  0.96729655  0.38756784    -0.24000
H1256       H  0.59015048  0.93032877  0.37692794     0.14900
H1257       H  0.61044282  0.99103307  0.29153545     0.15000
C1258       C  0.56631255  0.95487024  0.28152656    -0.24000
H1259       H  0.62360344  0.95408734  0.40507762     0.05200
H1260       H  0.63267106  0.99013394  0.39463681     0.08400
H1261       H  0.65579161  0.96011797  0.38482557     0.08400
H1262       H  0.54320827  0.95919299  0.28588473     0.08400
H1263       H  0.56887024  0.93287609  0.27249831     0.08400
H1264       H  0.57362388  0.97043893  0.26489705     0.05200
C1265       C  0.37429959  0.77528759  0.37421002    -0.20600
C1266       C  0.35104235  0.75622491  0.37220497    -0.07200
C1267       C  0.35127536  0.73411830  0.35124905     0.13700
C1268       C  0.37339501  0.73388215  0.33055175    -0.20700
C1269       C  0.39457027  0.75542323  0.33062180    -0.07200
C1270       C  0.39607911  0.77525067  0.35360972     0.13700
C1271       C  0.42018120  0.79694494  0.35611813    -0.24000
H1272       H  0.37448720  0.79154035  0.39103450     0.14900
H1273       H  0.37275563  0.71848089  0.31296106     0.15000
C1274       C  0.32737187  0.71230886  0.34933194    -0.24000
H1275       H  0.41879822  0.80945245  0.37652280     0.05200
H1276       H  0.41933150  0.81257329  0.33807741     0.08400
H1277       H  0.44125421  0.78565085  0.35585864     0.08400
H1278       H  0.30649127  0.72337797  0.34568287     0.08400
H1279       H  0.32630141  0.69979561  0.36969739     0.08400
H1280       H  0.33085876  0.69691479  0.33130682     0.05200
C1281       C  0.22980902  0.80225814  0.33294639    -0.20600
C1282       C  0.22286521  0.80601117  0.36214770    -0.07200
C1283       C  0.19430238  0.81287692  0.37019675     0.13700
C1284       C  0.17284611  0.81282188  0.34897200    -0.20700
C1285       C  0.17941805  0.80544166  0.32044585    -0.07200
C1286       C  0.20833430  0.80189474  0.31186856     0.13700
C1287       C  0.21657883  0.79745144  0.28068294    -0.24000
H1288       H  0.25192791  0.79796670  0.32681253     0.14900
H1289       H  0.15054185  0.81602838  0.35511526     0.15000
C1290       C  0.18580884  0.81786749  0.40119181    -0.24000
H1291       H  0.24032525  0.79664035  0.27787255     0.05200
H1292       H  0.20819679  0.81555354  0.26749296     0.08400
H1293       H  0.20768011  0.77689527  0.27242261     0.08400
H1294       H  0.19766360  0.83669518  0.40993623     0.08400
H1295       H  0.19078897  0.79847587  0.41426491     0.08400
H1296       H  0.16240793  0.82234533  0.40337460     0.05200
C1297       C  0.30021234  0.67644473  0.63433851    -0.20600
C1298       C  0.31468712  0.70209787  0.64065610    -0.07200
C1299       C  0.33132163  0.70437887  0.66602778     0.13700
C1300       C  0.33055993  0.68184788  0.68615340    -0.20700
C1301       C  0.31332574  0.65755933  0.68122650    -0.07200
C1302       C  0.29960911  0.65387185  0.65426356     0.13700
C1303       C  0.28396703  0.62641734  0.64666804    -0.24000
H1304       H  0.28795198  0.67475170  0.61446448     0.14900
H1305       H  0.34131763  0.68434250  0.70679000     0.15000
C1306       C  0.34793909  0.73137785  0.67283108    -0.24000
H1307       H  0.27597925  0.62671130  0.62406066     0.05200
H1308       H  0.26509749  0.62324047  0.66095295     0.08400
H1309       H  0.29885900  0.60785157  0.64896088     0.08400
H1310       H  0.33303415  0.75002904  0.67403746     0.08400
H1311       H  0.36413270  0.73530441  0.65566632     0.08400
H1312       H  0.35946185  0.72969360  0.69377776     0.05200
C1313       C  0.29465659  0.82011769  0.68875912    -0.20600
C1314       C  0.27870401  0.82711280  0.66405686    -0.07200
C1315       C  0.26168752  0.85234401  0.66389158     0.13700
C1316       C  0.26302882  0.87106940  0.68769459    -0.20700
C1317       C  0.28091425  0.86506904  0.71144579    -0.07200
C1318       C  0.29579840  0.83853278  0.71255576     0.13700
C1319       C  0.31279724  0.82914092  0.73867966    -0.24000
H1320       H  0.30690421  0.80026521  0.68922921     0.14900
H1321       H  0.25115802  0.89113747  0.68710337     0.15000
C1322       C  0.24326215  0.86037014  0.63835539    -0.24000
H1323       H  0.32057151  0.80662629  0.73654713     0.05200
H1324       H  0.29898699  0.83025642  0.75821042     0.08400
H1325       H  0.33206702  0.84293951  0.74154122     0.08400
H1326       H  0.22664395  0.84357807  0.63473946     0.08400
H1327       H  0.25687548  0.86250655  0.61878286     0.08400
H1328       H  0.23194622  0.88115582  0.64179901     0.05200
C1329       C  0.21779915  0.60505330  0.55798652    -0.20600
C1330       C  0.19621896  0.62613009  0.56075928    -0.07200
C1331       C  0.17539910  0.62284016  0.58292561     0.13700
C1332       C  0.17751113  0.59952374  0.60211578    -0.20700
C1333       C  0.19994012  0.57926637  0.60032419    -0.07200
C1334       C  0.22010242  0.58187381  0.57749260     0.13700
C1335       C  0.24473664  0.56106080  0.57398528    -0.24000
H1336       H  0.23371174  0.60728841  0.54102575     0.14900
H1337       H  0.16171664  0.59753851  0.61922234     0.15000
C1338       C  0.15076293  0.64367183  0.58678207    -0.24000
H1339       H  0.25852145  0.56661187  0.55521939     0.05200
H1340       H  0.23626606  0.53900772  0.57040547     0.08400
H1341       H  0.25854089  0.56145980  0.59355806     0.08400
H1342       H  0.13830432  0.64537535  0.56639221     0.08400
H1343       H  0.15908735  0.66513332  0.59317175     0.08400
H1344       H  0.13567499  0.63662239  0.60397128     0.05200
C1345       C  0.10605397  0.72031495  0.46146152    -0.20600
C1346       C  0.12449684  0.69625528  0.46196844    -0.07200
C1347       C  0.11776751  0.67243978  0.44401646     0.13700
C1348       C  0.09446309  0.67421947  0.42477757    -0.20700
C1349       C  0.07731649  0.69902881  0.42263120    -0.07200
C1350       C  0.08258739  0.72204091  0.44207375     0.13700
C1351       C  0.06437541  0.74886725  0.44189790    -0.24000
H1352       H  0.11070673  0.73841252  0.47549063     0.14900
H1353       H  0.09012063  0.65616612  0.41058411     0.15000
C1354       C  0.13485729  0.64483194  0.44485102    -0.24000
H1355       H  0.07164504  0.76464275  0.45839007     0.05200
H1356       H  0.04165079  0.74324948  0.44674714     0.08400
H1357       H  0.06567872  0.75944491  0.42046904     0.08400
H1358       H  0.13580009  0.63656697  0.46730959     0.08400
H1359       H  0.15694225  0.64850725  0.43653445     0.08400
H1360       H  0.12497590  0.62782256  0.43120114     0.05200
C1361       C  0.43512123  0.88839940  0.42857487    -0.20600
C1362       C  0.43598712  0.86545389  0.44830057    -0.07200
C1363       C  0.45766777  0.84419692  0.44475544     0.13700
C1364       C  0.47724028  0.84635013  0.42150859    -0.20700
C1365       C  0.47562838  0.86885109  0.40122795    -0.07200
C1366       C  0.45423965  0.89031968  0.40515106     0.13700
C1367       C  0.45106154  0.91547638  0.38484710    -0.24000
H1368       H  0.41878439  0.90489019  0.43109585     0.14900
H1369       H  0.49341764  0.82975605  0.41867485     0.15000
C1370       C  0.45991007  0.81870385  0.46468133    -0.24000
H1371       H  0.43419937  0.93079241  0.39216654     0.05200
H1372       H  0.44462376  0.90775599  0.36310899     0.08400
H1373       H  0.47167739  0.92749816  0.38354100     0.08400
H1374       H  0.43962775  0.80607482  0.46396021     0.08400
H1375       H  0.46405797  0.82617038  0.48706135     0.08400
H1376       H  0.47780678  0.80409702  0.45844340     0.05200
C1377       C  0.39784701  0.92950390  0.58111273    -0.20600
C1378       C  0.37555964  0.93085778  0.56064434    -0.07200
C1379       C  0.35557300  0.95389633  0.56248179     0.13700
C1380       C  0.35678940  0.97286432  0.58626276    -0.20700
C1381       C  0.37773009  0.96985884  0.60803463    -0.07200
C1382       C  0.39943549  0.94866976  0.60446567     0.13700
C1383       C  0.42452955  0.94580940  0.62497888    -0.24000
H1384       H  0.41394604  0.91270054  0.57931979     0.14900
H1385       H  0.34068644  0.98965601  0.58825499     0.15000
C1386       C  0.33266033  0.95851901  0.53993022    -0.24000
H1387       H  0.44038370  0.92955317  0.61744461     0.05200
H1388       H  0.41689399  0.93876918  0.64652327     0.08400
H1389       H  0.43599318  0.96671220  0.62675299     0.08400
H1390       H  0.31786861  0.93978247  0.53929212     0.08400
H1391       H  0.34288643  0.96150683  0.51848392     0.08400
H1392       H  0.31952320  0.97798295  0.54450567     0.05200
loop_ 
_geom_bond_atom_site_label_1 
_geom_bond_atom_site_label_2 
_geom_bond_distance 
_geom_bond_site_symmetry_2 
_ccdc_geom_bond_type 
In1           O3   2.219       .  S
In1           O4   2.260       .  S
In1          O12   2.226       .  S
In1           O6   2.268       .  S
In1           O8   2.253       .  S
In1           O9   2.250       .  S
In1          O10   2.211       .  S
In1          O13   2.186       .  S
C2            O8   1.274       .  A
C2           O10   1.264       .  A
C2           C28   1.467       .  S
O3           C11   1.267       .  A
O4           C11   1.270       .  A
C5           O12   1.266       .  A
C5            O6   1.270       .  A
C5         C1362   1.501       .  S
C7            O9   1.274       .  A
C7           O13   1.262       .  A
C7           C41   1.458       .  S
C11        C1378   1.496       .  S
In14         O16   2.224       .  S
In14         O17   2.260       .  S
In14         O25   2.221       .  S
In14         O19   2.269       .  S
In14         O21   2.256       .  S
In14         O22   2.252       .  S
In14         O23   2.199       .  S
In14         O26   2.195       .  S
C15          O21   1.274       .  A
C15          O23   1.263       .  A
C15          C37   1.465       .  S
O16          C24   1.265       .  A
O17          C24   1.271       .  A
C18          O25   1.265       .  A
C18          O19   1.271       .  A
C18        C1346   1.497       .  S
C20          O22   1.273       .  A
C20          O26   1.264       .  A
C20          C50   1.462       .  S
C24        C1330   1.497       .  S
In27         O29   2.226       .  S
In27         O30   2.266       .  S
In27         O38   2.211       .  S
In27         O32   2.253       .  S
In27         O34   2.264       .  S
In27         O35   2.254       .  S
In27         O36   2.238       .  S
In27         O39   2.207       .  S
C28          O34   1.260       .  A
C28          O36   1.260       .  A
O29          C37   1.261       .  A
O30          C37   1.261       .  A
C31          O38   1.259       .  A
C31          O32   1.263       .  A
C31        C1298   1.463       .  S
C33          O35   1.262       .  A
C33          O39   1.258       .  A
C33        C1314   1.474       .  S
In40         O42   2.224       .  S
In40         O43   2.271       .  S
In40         O51   2.213       .  S
In40         O45   2.237       .  S
In40         O47   2.262       .  S
In40         O48   2.252       .  S
In40         O49   2.220       .  S
In40         O52   2.186       .  S
C41          O47   1.259       .  A
C41          O49   1.261       .  A
O42          C50   1.258       .  A
O43          C50   1.259       .  A
C44          O51   1.257       .  A
C44          O45   1.258       .  A
C44        C1282   1.465       .  S
C46          O48   1.265       .  A
C46          O52   1.261       .  A
C46        C1266   1.465       .  S
In53         O55   2.204       .  S
In53         O56   2.249       .  S
In53         O64   2.226       .  S
In53         O58   2.267       .  S
In53         O60   2.265       .  S
In53         O61   2.257       .  S
In53         O62   2.193       .  S
In53         O65   2.225       .  S
C54          O60   1.276       .  A
C54          O62   1.263       .  A
C54          C85   1.467       .  S
O55          C63   1.264       .  A
O56          C63   1.273       .  A
C57          O64   1.267       .  A
C57          O58   1.272       .  A
C57        C1250   1.497       .  S
C59          O61   1.271       .  A
C59          O65   1.267       .  A
C59        C1365   1.499       .  S
C63          C93   1.465       .  S
In66         O68   2.193       .  S
In66         O69   2.254       .  S
In66         O77   2.244       .  S
In66         O71   2.249       .  S
In66         O73   2.265       .  S
In66         O74   2.267       .  S
In66         O75   2.199       .  S
In66         O78   2.221       .  S
C67          O73   1.274       .  A
C67          O75   1.263       .  A
C67          C98   1.467       .  S
O68          C76   1.263       .  A
O69          C76   1.275       .  A
C70          O77   1.267       .  A
C70          O71   1.271       .  A
C70        C1218   1.499       .  S
C72          O74   1.272       .  A
C72          O78   1.265       .  A
C72        C1234   1.503       .  S
C76          C80   1.462       .  S
In79         O81   2.202       .  S
In79         O82   2.261       .  S
In79         O90   2.189       .  S
In79         O84   2.251       .  S
In79         O86   2.265       .  S
In79         O87   2.276       .  S
In79         O88   2.221       .  S
In79         O91   2.224       .  S
C80          O86   1.260       .  A
C80          O88   1.260       .  A
O81          C89   1.256       .  A
O82          C89   1.263       .  A
C83          O90   1.259       .  A
C83          O84   1.263       .  A
C83        C1269   1.460       .  S
C85          O87   1.262       .  A
C85          O91   1.260       .  A
C89        C1202   1.475       .  S
In92         O94   2.197       .  S
In92         O95   2.247       .  S
In92        O103   2.219       .  S
In92         O97   2.249       .  S
In92         O99   2.269       .  S
In92        O100   2.282       .  S
In92        O101   2.236       .  S
In92        O104   2.228       .  S
C93          O99   1.258       .  A
C93         O101   1.259       .  A
O94         C102   1.260       .  A
O95         C102   1.264       .  A
C96         O103   1.260       .  A
C96          O97   1.262       .  A
C96        C1170   1.471       .  S
C98         O100   1.259       .  A
C98         O104   1.258       .  A
C102       C1186   1.458       .  S
In105       O107   2.243       .  S
In105       O108   2.265       .  S
In105       O116   2.229       .  S
In105       O110   2.279       .  S
In105       O112   2.272       .  S
In105       O113   2.246       .  S
In105       O114   2.199       .  S
In105       O117   2.206       .  S
C106        O112   1.276       .  A
C106        O114   1.263       .  A
C106        C154   1.470       .  S
O107        C115   1.268       .  A
O108        C115   1.270       .  A
C109        O116   1.267       .  A
C109        O110   1.273       .  A
C109       C1237   1.507       .  S
C111        O113   1.274       .  A
C111        O117   1.265       .  A
C111        C141   1.464       .  S
C115       C1154   1.502       .  S
In118       O120   2.230       .  S
In118       O121   2.253       .  S
In118       O129   2.217       .  S
In118       O123   2.252       .  S
In118       O125   2.254       .  S
In118       O126   2.259       .  S
In118       O127   2.197       .  S
In118       O130   2.196       .  S
C119        O125   1.272       .  A
C119        O127   1.263       .  A
C119        C132   1.463       .  S
O120        C128   1.266       .  A
O121        C128   1.269       .  A
C122        O129   1.266       .  A
C122        O123   1.269       .  A
C122       C1122   1.491       .  S
C124        O126   1.273       .  A
C124        O130   1.263       .  A
C124        C145   1.464       .  S
C128       C1138   1.496       .  S
In131       O133   2.231       .  S
In131       O134   2.259       .  S
In131       O142   2.199       .  S
In131       O136   2.264       .  S
In131       O138   2.264       .  S
In131       O139   2.241       .  S
In131       O140   2.215       .  S
In131       O143   2.186       .  S
C132        O138   1.264       .  A
C132        O140   1.261       .  A
O133        C141   1.261       .  A
O134        C141   1.260       .  A
C135        O142   1.256       .  A
C135        O136   1.264       .  A
C135       C1173   1.469       .  S
C137        O139   1.266       .  A
C137        O143   1.261       .  A
C137       C1106   1.468       .  S
In144       O146   2.229       .  S
In144       O147   2.280       .  S
In144       O155   2.192       .  S
In144       O149   2.253       .  S
In144       O151   2.277       .  S
In144       O152   2.235       .  S
In144       O153   2.221       .  S
In144       O156   2.229       .  S
C145        O151   1.261       .  A
C145        O153   1.258       .  A
O146        C154   1.261       .  A
O147        C154   1.260       .  A
C148        O155   1.260       .  A
C148        O149   1.265       .  A
C148       C1093   1.462       .  S
C150        O152   1.260       .  A
C150        O156   1.260       .  A
C150       C1074   1.471       .  S
In157       O159   2.235   1_545  S
In157       O160   2.252       .  S
In157       O168   2.220       .  S
In157       O162   2.261       .  S
In157       O164   2.250   1_545  S
In157       O165   2.258       .  S
In157       O166   2.197       .  S
In157       O169   2.204       .  S
C158        O164   1.276       .  A
C158        O166   1.265   1_565  A
C158        C193   1.464       .  S
O159        C167   1.268       .  A
O160        C167   1.272   1_545  A
C161        O168   1.266       .  A
C161        O162   1.273       .  A
C161       C1058   1.501       .  S
C163        O165   1.275       .  A
C163        O169   1.265       .  A
C163        C206   1.469       .  S
C167       C1253   1.498       .  S
In170       O172   2.219       .  S
In170       O173   2.260       .  S
In170       O181   2.229   1_545  S
In170       O175   2.262       .  S
In170       O177   2.252       .  S
In170       O178   2.270       .  S
In170       O179   2.203       .  S
In170       O182   2.187       .  S
C171        O177   1.272       .  A
C171        O179   1.263       .  A
C171        C197   1.463       .  S
O172        C180   1.263       .  A
O173        C180   1.271       .  A
C174        O181   1.264       .  A
C174        O175   1.270   1_565  A
C174       C1026   1.498       .  S
C176        O178   1.274   1_565  A
C176        O182   1.261   1_565  A
C176        C184   1.464       .  S
C180       C1042   1.497       .  S
In183       O185   2.234       .  S
In183       O186   2.264       .  S
In183       O194   2.202       .  S
In183       O188   2.256       .  S
In183       O190   2.281       .  S
In183       O191   2.235       .  S
In183       O192   2.212       .  S
In183       O195   2.212       .  S
C184        O190   1.261       .  A
C184        O192   1.259       .  A
O185        C193   1.260       .  A
O186        C193   1.258       .  A
C187        O194   1.256       .  A
C187        O188   1.262       .  A
C187       C1189   1.463       .  S
C189        O191   1.262       .  A
C189        O195   1.262       .  A
C189       C1013   1.468       .  S
In196       O198   2.230       .  S
In196       O199   2.273       .  S
In196       O207   2.195       .  S
In196       O201   2.247       .  S
In196       O203   2.265       .  S
In196       O204   2.262       .  S
In196       O205   2.225       .  S
In196       O208   2.214       .  S
C197        O203   1.260       .  A
C197        O205   1.260       .  A
O198        C206   1.261       .  A
O199        C206   1.262       .  A
C200        O207   1.261       .  A
C200        O201   1.265       .  A
C200        C978   1.460       .  S
C202        O204   1.263       .  A
C202        O208   1.258       .  A
C202        C997   1.478       .  S
In209       O211   2.184       .  S
In209       O212   2.260       .  S
In209       O220   2.237       .  S
In209       O214   2.270       .  S
In209       O216   2.261   1_455  S
In209       O217   2.258       .  S
In209       O218   2.198       .  S
In209       O221   2.227   1_455  S
C210        O216   1.273       .  A
C210        O218   1.262   1_655  A
C210        C254   1.464       .  S
O211        C219   1.261       .  A
O212        C219   1.272       .  A
C213        O220   1.266       .  A
C213        O214   1.269       .  A
C213        C965   1.503       .  S
C215        O217   1.269   1_655  A
C215        O221   1.266       .  A
C215       C1029   1.495       .  S
C219        C228   1.457       .  S
In222       O224   2.207       .  S
In222       O225   2.238       .  S
In222       O233   2.188       .  S
In222       O227   2.250       .  S
In222       O229   2.265       .  S
In222       O230   2.267       .  S
In222       O231   2.231       .  S
In222       O234   2.205       .  S
C223        O229   1.259       .  A
C223        O231   1.260       .  A
C223        C245   1.463       .  S
O224        C232   1.259       .  A
O225        C232   1.261       .  A
C226        O233   1.259       .  A
C226        O227   1.265       .  A
C226        C946   1.467       .  S
C228        O230   1.260       .  A
C228        O234   1.259       .  A
C232       C1285   1.459       .  S
In235       O237   2.197       .  S
In235       O238   2.249       .  S
In235       O246   2.215       .  S
In235       O240   2.262       .  S
In235       O242   2.252   1_455  S
In235       O243   2.256       .  S
In235       O244   2.200       .  S
In235       O247   2.220   1_455  S
C236        O242   1.274       .  A
C236        O244   1.265   1_655  A
C236        C249   1.465       .  S
O237        C245   1.264       .  A
O238        C245   1.274       .  A
C239        O246   1.267       .  A
C239        O240   1.272       .  A
C239       C1349   1.497       .  S
C241        O243   1.272   1_655  A
C241        O247   1.266       .  A
C241       C1141   1.498       .  S
In248       O250   2.185       .  S
In248       O251   2.237       .  S
In248       O259   2.191       .  S
In248       O253   2.249       .  S
In248       O255   2.265       .  S
In248       O256   2.266       .  S
In248       O257   2.222       .  S
In248       O260   2.216       .  S
C249        O255   1.263       .  A
C249        O257   1.261       .  A
O250        C258   1.260       .  A
O251        C258   1.265       .  A
C252        O259   1.259       .  A
C252        O253   1.265       .  A
C252       C1010   1.460       .  S
C254        O256   1.262       .  A
C254        O260   1.261       .  A
C258       C1109   1.461       .  S
In261       O263   2.244       .  S
In261       O264   2.247       .  S
In261       O272   2.230   1_554  S
In261       O266   2.265   1_554  S
In261       O268   2.276       .  S
In261       O269   2.249   1_554  S
In261       O270   2.200       .  S
In261       O273   2.214   1_554  S
C262        O268   1.274       .  A
C262        O270   1.261       .  A
C262        C297   1.470       .  S
O263        C271   1.267       .  A
O264        C271   1.268       .  A
C265        O272   1.265       .  A
C265        O266   1.271       .  A
C265        C930   1.499       .  S
C267        O269   1.271       .  A
C267        O273   1.263       .  A
C267        C310   1.464       .  S
C271       C1221   1.499       .  S
In274       O276   2.236   1_554  S
In274       O277   2.260   1_554  S
In274       O285   2.214       .  S
In274       O279   2.262       .  S
In274       O281   2.255   1_554  S
In274       O282   2.252       .  S
In274       O283   2.196   1_554  S
In274       O286   2.202       .  S
C275        O281   1.275       .  A
C275        O283   1.265       .  A
C275        C301   1.465       .  S
O276        C284   1.268       .  A
O277        C284   1.271       .  A
C278        O285   1.266       .  A
C278        O279   1.273       .  A
C278        C962   1.500       .  S
C280        O282   1.276       .  A
C280        O286   1.266       .  A
C280        C288   1.466       .  S
C284        C914   1.503       .  S
In287       O289   2.219       .  S
In287       O290   2.286       .  S
In287       O298   2.222       .  S
In287       O292   2.243       .  S
In287       O294   2.264       .  S
In287       O295   2.266       .  S
In287       O296   2.232       .  S
In287       O299   2.190       .  S
C288        O294   1.260       .  A
C288        O296   1.261       .  A
O289        C297   1.259       .  A
O290        C297   1.263       .  A
C291        O298   1.262       .  A
C291        O292   1.261       .  A
C291       C1205   1.479       .  S
C293        O295   1.265       .  A
C293        O299   1.259       .  A
C293        C949   1.465       .  S
In300       O302   2.239       .  S
In300       O303   2.258       .  S
In300       O311   2.223       .  S
In300       O305   2.262       .  S
In300       O307   2.273       .  S
In300       O308   2.246       .  S
In300       O309   2.223       .  S
In300       O312   2.205       .  S
C301        O307   1.261       .  A
C301        O309   1.260       .  A
O302        C310   1.260       .  A
O303        C310   1.258       .  A
C304        O311   1.258       .  A
C304        O305   1.261       .  A
C304        C898   1.481       .  S
C306        O308   1.263       .  A
C306        O312   1.261       .  A
C306        C882   1.464       .  S
In313       O315   2.204       .  S
In313       O316   2.251       .  S
In313       O324   2.234       .  S
In313       O318   2.265       .  S
In313       O320   2.260       .  S
In313       O321   2.266       .  S
In313       O322   2.201       .  S
In313       O325   2.237       .  S
C314        O320   1.275       .  A
C314        O322   1.264       .  A
C314        C340   1.466       .  S
O315        C323   1.265       .  A
O316        C323   1.275       .  A
C317        O324   1.266       .  A
C317        O318   1.272       .  A
C317        C933   1.501       .  S
C319        O321   1.271       .  A
C319        O325   1.267       .  A
C319        C866   1.505       .  S
C323        C358   1.466       .  S
In326       O328   2.204       .  S
In326       O329   2.262       .  S
In326       O337   2.226       .  S
In326       O331   2.256       .  S
In326       O333   2.263       .  S
In326       O334   2.253       .  S
In326       O335   2.189       .  S
In326       O338   2.232       .  S
C327        O333   1.273       .  A
C327        O335   1.262       .  A
C327        C345   1.463       .  S
O328        C336   1.262       .  A
O329        C336   1.272       .  A
C330        O337   1.266       .  A
C330        O331   1.270       .  A
C330       C1333   1.497       .  S
C332        O334   1.270       .  A
C332        O338   1.267       .  A
C332        C850   1.497       .  S
C336        C353   1.466       .  S
In339       O341   2.191       .  S
In339       O342   2.251       .  S
In339       O350   2.231       .  S
In339       O344   2.236       .  S
In339       O346   2.266       .  S
In339       O347   2.280       .  S
In339       O348   2.229       .  S
In339       O351   2.214       .  S
C340        O346   1.261       .  A
C340        O348   1.262       .  A
O341        C349   1.260       .  A
O342        C349   1.265       .  A
C343        O350   1.260       .  A
C343        O344   1.261       .  A
C343        C818   1.478       .  S
C345        O347   1.262       .  A
C345        O351   1.258       .  A
C349        C834   1.467       .  S
In352       O354   2.206       .  S
In352       O355   2.253       .  S
In352       O363   2.216       .  S
In352       O357   2.263       .  S
In352       O359   2.269       .  S
In352       O360   2.270       .  S
In352       O361   2.226       .  S
In352       O364   2.236       .  S
C353        O359   1.262       .  A
C353        O361   1.261       .  A
O354        C362   1.260       .  A
O355        C362   1.264       .  A
C356        O363   1.256       .  A
C356        O357   1.262       .  A
C356        C901   1.479       .  S
C358        O360   1.259       .  A
C358        O364   1.259       .  A
C362       C1301   1.466       .  S
In365       O367   2.189       .  S
In365       O368   2.260       .  S
In365       O376   2.217       .  S
In365       O370   2.255       .  S
In365       O372   2.245   1_545  S
In365       O373   2.251       .  S
In365       O374   2.201   1_545  S
In365       O377   2.229   1_545  S
C366        O372   1.275       .  A
C366        O374   1.266       .  A
C366        C405   1.464       .  S
O367        C375   1.265       .  A
O368        C375   1.276       .  A
C369        O376   1.268       .  A
C369        O370   1.272       .  A
C369        C802   1.500       .  S
C371        O373   1.273   1_565  A
C371        O377   1.267       .  A
C371        C917   1.499       .  S
C375        C379   1.465       .  S
In378       O380   2.199       .  S
In378       O381   2.236       .  S
In378       O389   2.234       .  S
In378       O383   2.251       .  S
In378       O385   2.280       .  S
In378       O386   2.256       .  S
In378       O387   2.219       .  S
In378       O390   2.223       .  S
C379        O385   1.261       .  A
C379        O387   1.259       .  A
O380        C388   1.263       .  A
O381        C388   1.263       .  A
C382        O389   1.258       .  A
C382        O383   1.260       .  A
C382        C789   1.478       .  S
C384        O386   1.258       .  A
C384        O390   1.258       .  A
C384        C392   1.457       .  S
C388        C773   1.459       .  S
In391       O393   2.200   1_545  S
In391       O394   2.267   1_545  S
In391       O402   2.216   1_545  S
In391       O396   2.257       .  S
In391       O398   2.244       .  S
In391       O399   2.265       .  S
In391       O400   2.199       .  S
In391       O403   2.224       .  S
C392        O398   1.270       .  A
C392        O400   1.262       .  A
O393        C401   1.261       .  A
O394        C401   1.272       .  A
C395        O402   1.264       .  A
C395        O396   1.269   1_565  A
C395       C1381   1.494       .  S
C397        O399   1.270       .  A
C397        O403   1.265       .  A
C397        C757   1.499       .  S
C401        C410   1.465       .  S
In404       O406   2.258       .  S
In404       O407   2.194       .  S
In404       O415   2.251       .  S
In404       O409   2.215       .  S
In404       O411   2.262       .  S
In404       O412   2.275       .  S
In404       O413   2.232       .  S
In404       O416   2.221       .  S
C405        O411   1.260       .  A
C405        O413   1.261       .  A
O406        C414   1.263       .  A
O407        C414   1.260       .  A
C408        O415   1.261       .  A
C408        O409   1.258       .  A
C408       C1317   1.476       .  S
C410        O412   1.260       .  A
C410        O416   1.259       .  A
C414        C885   1.460       .  S
In417       O419   2.237       .  S
In417       O420   2.268       .  S
In417       O428   2.228       .  S
In417       O422   2.268       .  S
In417       O424   2.265       .  S
In417       O425   2.253       .  S
In417       O426   2.209       .  S
In417       O429   2.191       .  S
C418        O424   1.272       .  A
C418        O426   1.262       .  A
C418        C453   1.469       .  S
O419        C427   1.265       .  A
O420        C427   1.269       .  A
C421        O428   1.264       .  A
C421        O422   1.271       .  A
C421        C754   1.500       .  S
C423        O425   1.273       .  A
C423        O429   1.262       .  A
C423        C466   1.460       .  S
C427        C738   1.498       .  S
In430       O432   2.231       .  S
In430       O433   2.262       .  S
In430       O441   2.245       .  S
In430       O435   2.255       .  S
In430       O437   2.263       .  S
In430       O438   2.251       .  S
In430       O439   2.198       .  S
In430       O442   2.194       .  S
C431        O437   1.276       .  A
C431        O439   1.266       .  A
C431        C457   1.468       .  S
O432        C440   1.267       .  A
O433        C440   1.273       .  A
C434        O441   1.268       .  A
C434        O435   1.272       .  A
C434        C722   1.503       .  S
C436        O438   1.276       .  A
C436        O442   1.265       .  A
C436        C444   1.464       .  S
C440        C869   1.503       .  S
In443       O445   2.230       .  S
In443       O446   2.276       .  S
In443       O454   2.211       .  S
In443       O448   2.250       .  S
In443       O450   2.265       .  S
In443       O451   2.257       .  S
In443       O452   2.226       .  S
In443       O455   2.203       .  S
C444        O450   1.260       .  A
C444        O452   1.262       .  A
O445        C453   1.259       .  A
O446        C453   1.261       .  A
C447        O454   1.259       .  A
C447        O448   1.261       .  A
C447        C690   1.473       .  S
C449        O451   1.265       .  A
C449        O455   1.259       .  A
C449        C706   1.465       .  S
In456       O458   2.219       .  S
In456       O459   2.264       .  S
In456       O467   2.223       .  S
In456       O461   2.258       .  S
In456       O463   2.279       .  S
In456       O464   2.247       .  S
In456       O465   2.225       .  S
In456       O468   2.191       .  S
C457        O463   1.262       .  A
C457        O465   1.260       .  A
O458        C466   1.260       .  A
O459        C466   1.260       .  A
C460        O467   1.258       .  A
C460        O461   1.262       .  A
C460        C786   1.478       .  S
C462        O464   1.264       .  A
C462        O468   1.260       .  A
C462        C837   1.463       .  S
In469       O471   2.203       .  S
In469       O472   2.268       .  S
In469       O480   2.231       .  S
In469       O474   2.252       .  S
In469       O476   2.254   1_554  S
In469       O477   2.263   1_554  S
In469       O478   2.199   1_554  S
In469       O481   2.231   1_554  S
C470        O476   1.271       .  A
C470        O478   1.261       .  A
C470        C509   1.461       .  S
O471        C479   1.262       .  A
O472        C479   1.272       .  A
C473        O480   1.267       .  A
C473        O474   1.268       .  A
C473       C1045   1.497       .  S
C475        O477   1.270       .  A
C475        O481   1.265       .  A
C475        C674   1.497       .  S
C479        C488   1.468       .  S
In482       O484   2.193       .  S
In482       O485   2.258       .  S
In482       O493   2.227       .  S
In482       O487   2.243       .  S
In482       O489   2.269       .  S
In482       O490   2.283       .  S
In482       O491   2.233       .  S
In482       O494   2.224       .  S
C483        O489   1.260       .  A
C483        O491   1.261       .  A
C483        C505   1.467       .  S
O484        C492   1.260       .  A
O485        C492   1.266       .  A
C486        O493   1.259       .  A
C486        O487   1.261       .  A
C486        C994   1.476       .  S
C488        O490   1.262       .  A
C488        O494   1.258       .  A
C492       C1090   1.467       .  S
In495       O497   2.204       .  S
In495       O498   2.256       .  S
In495       O506   2.225       .  S
In495       O500   2.273       .  S
In495       O502   2.265   1_554  S
In495       O503   2.256   1_554  S
In495       O504   2.188   1_554  S
In495       O507   2.243   1_554  S
C496        O502   1.276       .  A
C496        O504   1.264       .  A
C496        C514   1.465       .  S
O497        C505   1.265       .  A
O498        C505   1.275       .  A
C499        O506   1.266       .  A
C499        O500   1.273       .  A
C499       C1157   1.502       .  S
C501        O503   1.271       .  A
C501        O507   1.267       .  A
C501        C725   1.502       .  S
In508       O510   2.225       .  S
In508       O511   2.247       .  S
In508       O519   2.208       .  S
In508       O513   2.251       .  S
In508       O515   2.267       .  S
In508       O516   2.276       .  S
In508       O517   2.225       .  S
In508       O520   2.218       .  S
C509        O515   1.259       .  A
C509        O517   1.258       .  A
O510        C518   1.258       .  A
O511        C518   1.260       .  A
C512        O519   1.260       .  A
C512        O513   1.263       .  A
C512        C709   1.468       .  S
C514        O516   1.261       .  A
C514        O520   1.261       .  A
C518        C658   1.469       .  S
In521       O523   2.234       .  S
In521       O524   2.259       .  S
In521       O532   2.232       .  S
In521       O526   2.272       .  S
In521       O528   2.255       .  S
In521       O529   2.251       .  S
In521       O530   2.209       .  S
In521       O533   2.197       .  S
C522        O528   1.273       .  A
C522        O530   1.263       .  A
C522        C548   1.466       .  S
O523        C531   1.266       .  A
O524        C531   1.270       .  A
C525        O532   1.266       .  A
C525        O526   1.271       .  A
C525        C645   1.500   1_455  S
C527        O529   1.273       .  A
C527        O533   1.263       .  A
C527        C561   1.460   1_455  S
C531        C853   1.497       .  S
In534       O536   2.208       .  S
In534       O537   2.275       .  S
In534       O545   2.227       .  S
In534       O539   2.256       .  S
In534       O541   2.254       .  S
In534       O542   2.250       .  S
In534       O543   2.203       .  S
In534       O546   2.190       .  S
C535        O541   1.273       .  A
C535        O543   1.265       .  A
C535        C557   1.465       .  S
O536        C544   1.264       .  A
O537        C544   1.273       .  A
C538        O545   1.266       .  A
C538        O539   1.271       .  A
C538        C677   1.497   1_455  S
C540        O542   1.275       .  A
C540        O546   1.264       .  A
C540        C570   1.461   1_455  S
C544        C805   1.502       .  S
In547       O549   2.225       .  S
In547       O550   2.270       .  S
In547       O558   2.190       .  S
In547       O552   2.243       .  S
In547       O554   2.262       .  S
In547       O555   2.246       .  S
In547       O556   2.234       .  S
In547       O559   2.224       .  S
C548        O554   1.260       .  A
C548        O556   1.260       .  A
O549        C557   1.260       .  A
O550        C557   1.262       .  A
C551        O558   1.260       .  A
C551        O552   1.264       .  A
C551        C770   1.456       .  S
C553        O555   1.263       .  A
C553        O559   1.257       .  A
C553        C821   1.476       .  S
In560       O562   2.222       .  S
In560       O563   2.267       .  S
In560       O571   2.217       .  S
In560       O565   2.246       .  S
In560       O567   2.260       .  S
In560       O568   2.242       .  S
In560       O569   2.221       .  S
In560       O572   2.187       .  S
C561        O567   1.260       .  A
C561        O569   1.260       .  A
O562        C570   1.259       .  A
O563        C570   1.259       .  A
C564        O571   1.257       .  A
C564        O565   1.261       .  A
C564        C661   1.467       .  S
C566        O568   1.265       .  A
C566        O572   1.260       .  A
C566        C626   1.458       .  S
In573       O575   2.201       .  S
In573       O576   2.265       .  S
In573       O584   2.223       .  S
In573       O578   2.272       .  S
In573       O580   2.250       .  S
In573       O581   2.264       .  S
In573       O582   2.189       .  S
In573       O585   2.217       .  S
C574        O580   1.272       .  A
C574        O582   1.262       .  A
C574        C605   1.457       .  S
O575        C583   1.261       .  A
O576        C583   1.272       .  A
C577        O584   1.263       .  A
C577        O578   1.269       .  A
C577        C642   1.498       .  S
C579        O581   1.269       .  A
C579        O585   1.263       .  A
C579       C1125   1.490       .  S
C583        C618   1.464       .  S
In586       O588   2.192       .  S
In586       O589   2.252       .  S
In586       O597   2.226       .  S
In586       O591   2.257       .  S
In586       O593   2.250       .  S
In586       O594   2.262       .  S
In586       O595   2.192       .  S
In586       O598   2.226       .  S
C587        O593   1.274       .  A
C587        O595   1.263       .  A
C587        C600   1.459       .  S
O588        C596   1.263       .  A
O589        C596   1.274       .  A
C590        O597   1.267       .  A
C590        O591   1.270       .  A
C590        C741   1.496       .  S
C592        O594   1.271       .  A
C592        O598   1.267       .  A
C592       C1061   1.500       .  S
C596        C613   1.460       .  S
In599       O601   2.189       .  S
In599       O602   2.238       .  S
In599       O610   2.207       .  S
In599       O604   2.240       .  S
In599       O606   2.258       .  S
In599       O607   2.262       .  S
In599       O608   2.213       .  S
In599       O611   2.207       .  S
C600        O606   1.262       .  A
C600        O608   1.261       .  A
O601        C609   1.261       .  A
O602        C609   1.265       .  A
C603        O610   1.257       .  A
C603        O604   1.263       .  A
C603       C1077   1.468       .  S
C605        O607   1.261       .  A
C605        O611   1.259       .  A
C609        C981   1.458       .  S
In612       O614   2.209       .  S
In612       O615   2.253       .  S
In612       O623   2.208       .  S
In612       O617   2.241       .  S
In612       O619   2.260       .  S
In612       O620   2.269       .  S
In612       O621   2.218       .  S
In612       O624   2.220       .  S
C613        O619   1.260       .  A
C613        O621   1.260       .  A
O614        C622   1.258       .  A
O615        C622   1.262       .  A
C616        O623   1.260       .  A
C616        O617   1.262       .  A
C616        C629   1.461       .  S
C618        O620   1.262       .  A
C618        O624   1.261       .  A
C622        C693   1.470       .  S
C625        C626   1.400       .  A
C625        C630   1.401       .  A
C625        H632   1.088       .  S
C626        C627   1.411       .  A
C627        C628   1.394       .  A
C627        C634   1.510       .  S
C628        C629   1.399       .  A
C628        H633   1.099       .  S
C629        C630   1.412       .  A
C630        C631   1.506       .  S
C631        H635   1.111       .  S
C631        H636   1.110       .  S
C631        H637   1.110       .  S
C634        H638   1.110       .  S
C634        H639   1.108       .  S
C634        H640   1.112       .  S
C641        C642   1.408       .  A
C641        C646   1.414       .  A
C641        H648   1.084       .  S
C642        C643   1.419       .  A
C643        C644   1.406       .  A
C643        C650   1.509       .  S
C644        C645   1.405       .  A
C644        H649   1.084       .  S
C645        C646   1.419       .  A
C646        C647   1.506   1_655  S
C647        H651   1.111   1_455  S
C647        H652   1.110   1_455  S
C647        H653   1.110       .  S
C650        H654   1.109       .  S
C650        H655   1.111       .  S
C650        H656   1.111       .  S
C657        C658   1.402       .  A
C657        C662   1.399       .  A
C657        H664   1.084       .  S
C658        C659   1.414       .  A
C659        C660   1.401       .  A
C659        C666   1.507       .  S
C660        C661   1.401       .  A
C660        H665   1.084       .  S
C661        C662   1.413       .  A
C662        C663   1.509       .  S
C663        H667   1.111       .  S
C663        H668   1.109       .  S
C663        H669   1.110       .  S
C666        H670   1.111       .  S
C666        H671   1.109       .  S
C666        H672   1.111       .  S
C673        C674   1.406       .  A
C673        C678   1.407       .  A
C673        H680   1.084       .  S
C674        C675   1.418       .  A
C675        C676   1.412       .  A
C675        C682   1.506       .  S
C676        C677   1.407       .  A
C676        H681   1.084   1_655  S
C677        C678   1.419       .  A
C678        C679   1.508       .  S
C679        H683   1.111       .  S
C679        H684   1.111       .  S
C679        H685   1.109       .  S
C682        H686   1.110       .  S
C682        H687   1.110       .  S
C682        H688   1.111       .  S
C689        C690   1.401       .  A
C689        C694   1.394       .  A
C689        H696   1.085       .  S
C690        C691   1.416       .  A
C691        C692   1.406       .  A
C691        C698   1.507       .  S
C692        C693   1.404       .  A
C692        H697   1.084       .  S
C693        C694   1.413       .  A
C694        C695   1.510       .  S
C695        H699   1.111       .  S
C695        H700   1.110       .  S
C695        H701   1.107       .  S
C698        H702   1.110       .  S
C698        H703   1.111       .  S
C698        H704   1.111       .  S
C705        C706   1.402       .  A
C705        C710   1.404       .  A
C705        H712   1.084       .  S
C706        C707   1.411       .  A
C707        C708   1.397       .  A
C707        C714   1.510       .  S
C708        C709   1.401       .  A
C708        H713   1.085       .  S
C709        C710   1.412       .  A
C710        C711   1.506       .  S
C711        H715   1.111       .  S
C711        H716   1.110       .  S
C711        H717   1.110       .  S
C714        H718   1.110       .  S
C714        H719   1.109       .  S
C714        H720   1.111       .  S
C721        C722   1.408       .  A
C721        C726   1.412       .  A
C721        H728   1.084       .  S
C722        C723   1.419       .  A
C723        C724   1.411       .  A
C723        C730   1.507       .  S
C724        C725   1.406       .  A
C724        H729   1.084       .  S
C725        C726   1.420       .  A
C726        C727   1.508       .  S
C727        H731   1.111       .  S
C727        H732   1.110       .  S
C727        H733   1.111       .  S
C730        H734   1.111       .  S
C730        H735   1.110       .  S
C730        H736   1.111       .  S
C737        C738   1.408       .  A
C737        C742   1.413       .  A
C737        H744   1.084       .  S
C738        C739   1.418       .  A
C739        C740   1.406       .  A
C739        C746   1.508       .  S
C740        C741   1.405       .  A
C740        H745   1.084       .  S
C741        C742   1.419       .  A
C742        C743   1.507       .  S
C743        H747   1.111       .  S
C743        H748   1.110       .  S
C743        H749   1.110       .  S
C746        H750   1.111       .  S
C746        H751   1.109       .  S
C746        H752   1.111       .  S
C753        C754   1.408       .  A
C753        C758   1.413       .  A
C753        H760   1.084       .  S
C754        C755   1.420       .  A
C755        C756   1.406       .  A
C755        C762   1.509       .  S
C756        C757   1.406       .  A
C756        H761   1.084       .  S
C757        C758   1.418       .  A
C758        C759   1.506       .  S
C759        H763   1.111       .  S
C759        H764   1.110       .  S
C759        H765   1.110       .  S
C762        H766   1.110       .  S
C762        H767   1.109       .  S
C762        H768   1.111       .  S
C769        C770   1.400       .  A
C769        C774   1.401       .  A
C769        H776   1.085       .  S
C770        C771   1.409       .  A
C771        C772   1.394       .  A
C771        C778   1.509       .  S
C772        C773   1.400       .  A
C772        H777   1.085       .  S
C773        C774   1.411       .  A
C774        C775   1.506       .  S
C775        H779   1.111       .  S
C775        H780   1.110       .  S
C775        H781   1.110       .  S
C778        H782   1.110       .  S
C778        H783   1.109       .  S
C778        H784   1.111       .  S
C785        C786   1.403       .  A
C785        C790   1.405       .  A
C785        H792   1.084       .  S
C786        C787   1.415       .  A
C787        C788   1.401       .  A
C787        C794   1.509       .  S
C788        C789   1.403       .  A
C788        H793   1.083       .  S
C789        C790   1.416       .  A
C790        C791   1.508       .  S
C791        H795   1.111       .  S
C791        H796   1.111       .  S
C791        H797   1.110       .  S
C794        H798   1.109       .  S
C794        H799   1.111       .  S
C794        H800   1.111       .  S
C801        C802   1.404       .  A
C801        C806   1.403       .  A
C801        H808   1.084       .  S
C802        C803   1.420       .  A
C803        C804   1.415       .  A
C803        C810   1.506       .  S
C804        C805   1.409       .  A
C804        H809   1.084       .  S
C805        C806   1.422       .  A
C806        C807   1.510       .  S
C807        H811   1.111       .  S
C807        H812   1.110       .  S
C807        H813   1.110       .  S
C810        H814   1.110       .  S
C810        H815   1.110       .  S
C810        H816   1.111       .  S
C817        C818   1.404       .  A
C817        C822   1.401       .  A
C817        H824   1.084       .  S
C818        C819   1.415       .  A
C819        C820   1.401       .  A
C819        C826   1.508       .  S
C820        C821   1.402       .  A
C820        H825   1.084       .  S
C821        C822   1.416       .  A
C822        C823   1.509       .  S
C823        H827   1.111       .  S
C823        H828   1.109       .  S
C823        H829   1.111       .  S
C826        H830   1.110       .  S
C826        H831   1.110       .  S
C826        H832   1.111       .  S
C833        C834   1.402       .  A
C833        C838   1.394       .  A
C833        H840   1.085       .  S
C834        C835   1.412       .  A
C835        C836   1.404       .  A
C835        C842   1.506       .  S
C836        C837   1.402       .  A
C836        H841   1.084       .  S
C837        C838   1.412       .  A
C838        C839   1.511       .  S
C839        H843   1.111       .  S
C839        H844   1.110       .  S
C839        H845   1.108       .  S
C842        H846   1.110       .  S
C842        H847   1.110       .  S
C842        H848   1.111       .  S
C849        C850   1.406       .  A
C849        C854   1.407       .  A
C849        H856   1.084       .  S
C850        C851   1.419       .  A
C851        C852   1.411       .  A
C851        C858   1.507       .  S
C852        C853   1.407       .  A
C852        H857   1.084       .  S
C853        C854   1.419       .  A
C854        C855   1.508       .  S
C855        H859   1.111       .  S
C855        H860   1.110       .  S
C855        H861   1.109       .  S
C858        H862   1.110       .  S
C858        H863   1.111       .  S
C858        H864   1.111       .  S
C865        C866   1.407       .  A
C865        C870   1.408       .  A
C865        H872   1.084       .  S
C866        C867   1.420       .  A
C867        C868   1.414       .  A
C867        C874   1.506       .  S
C868        C869   1.407       .  A
C868        H873   1.084       .  S
C869        C870   1.421       .  A
C870        C871   1.509       .  S
C871        H875   1.111       .  S
C871        H876   1.110       .  S
C871        H877   1.111       .  S
C874        H878   1.110       .  S
C874        H879   1.110       .  S
C874        H880   1.111       .  S
C881        C882   1.400       .  A
C881        C886   1.395       .  A
C881        H888   1.084       .  S
C882        C883   1.412       .  A
C883        C884   1.404       .  A
C883        C890   1.506       .  S
C884        C885   1.401       .  A
C884        H889   1.084       .  S
C885        C886   1.410       .  A
C886        C887   1.510       .  S
C887        H891   1.111       .  S
C887        H892   1.109       .  S
C887        H893   1.110       .  S
C890        H894   1.111       .  S
C890        H895   1.110       .  S
C890        H896   1.111       .  S
C897        C898   1.403       .  A
C897        C902   1.399       .  A
C897        H904   1.084       .  S
C898        C899   1.416       .  A
C899        C900   1.406       .  A
C899        C906   1.507       .  S
C900        C901   1.404       .  A
C900        H905   1.084       .  S
C901        C902   1.416       .  A
C902        C903   1.510       .  S
C903        H907   1.111       .  S
C903        H908   1.110       .  S
C903        H909   1.109       .  S
C906        H910   1.110       .  S
C906        H911   1.110       .  S
C906        H912   1.111       .  S
C913        C914   1.408       .  A
C913        C918   1.409       .  A
C913        H920   1.084       .  S
C914        C915   1.419       .  A
C915        C916   1.410       .  A
C915        C922   1.506       .  S
C916        C917   1.406       .  A
C916        H921   1.084       .  S
C917        C918   1.420       .  A
C918        C919   1.509       .  S
C919        H923   1.111       .  S
C919        H924   1.109       .  S
C919        H925   1.110       .  S
C922        H926   1.110       .  S
C922        H927   1.110       .  S
C922        H928   1.111       .  S
C929        C930   1.406       .  A
C929        C934   1.408       .  A
C929        H936   1.085       .  S
C930        C931   1.418       .  A
C931        C932   1.413       .  A
C931        C938   1.506       .  S
C932        C933   1.408       .  A
C932        H937   1.084       .  S
C933        C934   1.420       .  A
C934        C935   1.508       .  S
C935        H939   1.111       .  S
C935        H940   1.109       .  S
C935        H941   1.111       .  S
C938        H942   1.110       .  S
C938        H943   1.110       .  S
C938        H944   1.111       .  S
C945        C946   1.404       .  A
C945        C950   1.405       .  A
C945        H952   1.084       .  S
C946        C947   1.415       .  A
C947        C948   1.394       .  A
C947        C954   1.512       .  S
C948        C949   1.399       .  A
C948        H953   1.085       .  S
C949        C950   1.410       .  A
C950        C951   1.505       .  S
C951        H955   1.111       .  S
C951        H956   1.110       .  S
C951        H957   1.110       .  S
C954        H958   1.109       .  S
C954        H959   1.111       .  S
C954        H960   1.111       .  S
C961        C962   1.408       .  A
C961        C966   1.414       .  A
C961        H968   1.084       .  S
C962        C963   1.420       .  A
C963        C964   1.406       .  A
C963        C970   1.509       .  S
C964        C965   1.406       .  A
C964        H969   1.084       .  S
C965        C966   1.420       .  A
C966        C967   1.506       .  S
C967        H971   1.111       .  S
C967        H972   1.110       .  S
C967        H973   1.110       .  S
C970        H974   1.111       .  S
C970        H975   1.109       .  S
C970        H976   1.111       .  S
C977        C978   1.400       .  A
C977        C982   1.396       .  A
C977        H984   1.085       .  S
C978        C979   1.410       .  A
C979        C980   1.402       .  A
C979        C986   1.506       .  S
C980        C981   1.401       .  A
C980        H985   1.085       .  S
C981        C982   1.410       .  A
C982        C983   1.510       .  S
C983        H987   1.111       .  S
C983        H988   1.109       .  S
C983        H989   1.110       .  S
C986        H990   1.111       .  S
C986        H991   1.110       .  S
C986        H992   1.111       .  S
C993        C994   1.405       .  A
C993        C998   1.405       .  A
C993       H1000   1.084       .  S
C994        C995   1.414       .  A
C995        C996   1.399       .  A
C995       C1002   1.509       .  S
C996        C997   1.403       .  A
C996       H1001   1.084       .  S
C997        C998   1.414       .  A
C998        C999   1.507       .  S
C999       H1003   1.111       .  S
C999       H1004   1.110       .  S
C999       H1005   1.110       .  S
C1002      H1006   1.111       .  S
C1002      H1007   1.109       .  S
C1002      H1008   1.111       .  S
C1009      C1010   1.400       .  A
C1009      C1014   1.404       .  A
C1009      H1016   1.085       .  S
C1010      C1011   1.410       .  A
C1011      C1012   1.394       .  A
C1011      C1018   1.511       .  S
C1012      C1013   1.401       .  A
C1012      H1017   1.085       .  S
C1013      C1014   1.415       .  A
C1014      C1015   1.507       .  S
C1015      H1019   1.111       .  S
C1015      H1020   1.111       .  S
C1015      H1021   1.110       .  S
C1018      H1022   1.109       .  S
C1018      H1023   1.111       .  S
C1018      H1024   1.111       .  S
C1025      C1026   1.408       .  A
C1025      C1030   1.412       .  A
C1025      H1032   1.084       .  S
C1026      C1027   1.420       .  A
C1027      C1028   1.406       .  A
C1027      C1034   1.508       .  S
C1028      C1029   1.404       .  A
C1028      H1033   1.084       .  S
C1029      C1030   1.418       .  A
C1030      C1031   1.507       .  S
C1031      H1035   1.111       .  S
C1031      H1036   1.110   1_655  S
C1031      H1037   1.110       .  S
C1034      H1038   1.110       .  S
C1034      H1039   1.110       .  S
C1034      H1040   1.111       .  S
C1041      C1042   1.406       .  A
C1041      C1046   1.410       .  A
C1041      H1048   1.084       .  S
C1042      C1043   1.420       .  A
C1043      C1044   1.405       .  A
C1043      C1050   1.509       .  S
C1044      C1045   1.405       .  A
C1044      H1049   1.085       .  S
C1045      C1046   1.420       .  A
C1046      C1047   1.507       .  S
C1047      H1051   1.111       .  S
C1047      H1052   1.110       .  S
C1047      H1053   1.110       .  S
C1050      H1054   1.110       .  S
C1050      H1055   1.109       .  S
C1050      H1056   1.111       .  S
C1057      C1058   1.408       .  A
C1057      C1062   1.413       .  A
C1057      H1064   1.084       .  S
C1058      C1059   1.421       .  A
C1059      C1060   1.406       .  A
C1059      C1066   1.509       .  S
C1060      C1061   1.406       .  A
C1060      H1065   1.084       .  S
C1061      C1062   1.419       .  A
C1062      C1063   1.506       .  S
C1063      H1067   1.111       .  S
C1063      H1068   1.110       .  S
C1063      H1069   1.110       .  S
C1066      H1070   1.110       .  S
C1066      H1071   1.110       .  S
C1066      H1072   1.111       .  S
C1073      C1074   1.402       .  A
C1073      C1078   1.399       .  A
C1073      H1080   1.085       .  S
C1074      C1075   1.414       .  A
C1075      C1076   1.400       .  A
C1075      C1082   1.508       .  S
C1076      C1077   1.401       .  A
C1076      H1081   1.085       .  S
C1077      C1078   1.414       .  A
C1078      C1079   1.510       .  S
C1079      H1083   1.111       .  S
C1079      H1084   1.111       .  S
C1079      H1085   1.109       .  S
C1082      H1086   1.110       .  S
C1082      H1087   1.111       .  S
C1082      H1088   1.111       .  S
C1089      C1090   1.401       .  A
C1089      C1094   1.395       .  A
C1089      H1096   1.085       .  S
C1090      C1091   1.412       .  A
C1091      C1092   1.405       .  A
C1091      C1098   1.505       .  S
C1092      C1093   1.402       .  A
C1092      H1097   1.084       .  S
C1093      C1094   1.410       .  A
C1094      C1095   1.510       .  S
C1095      H1099   1.111       .  S
C1095      H1100   1.110       .  S
C1095      H1101   1.109       .  S
C1098      H1102   1.110       .  S
C1098      H1103   1.110       .  S
C1098      H1104   1.111       .  S
C1105      C1106   1.402       .  A
C1105      C1110   1.391       .  A
C1105      H1112   1.085       .  S
C1106      C1107   1.414       .  A
C1107      C1108   1.403       .  A
C1107      C1114   1.506       .  S
C1108      C1109   1.402       .  A
C1108      H1113   1.084       .  S
C1109      C1110   1.411       .  A
C1110      C1111   1.512       .  S
C1111      H1115   1.111       .  S
C1111      H1116   1.109       .  S
C1111      H1117   1.111       .  S
C1114      H1118   1.110       .  S
C1114      H1119   1.110       .  S
C1114      H1120   1.111       .  S
C1121      C1122   1.404       .  A
C1121      C1126   1.403       .  A
C1121      H1128   1.084       .  S
C1122      C1123   1.418       .  A
C1123      C1124   1.411       .  A
C1123      C1130   1.507       .  S
C1124      C1125   1.406       .  A
C1124      H1129   1.084       .  S
C1125      C1126   1.417       .  A
C1126      C1127   1.509       .  S
C1127      H1131   1.111       .  S
C1127      H1132   1.109       .  S
C1127      H1133   1.110       .  S
C1130      H1134   1.111       .  S
C1130      H1135   1.110       .  S
C1130      H1136   1.111       .  S
C1137      C1138   1.405       .  A
C1137      C1142   1.405       .  A
C1137      H1144   1.084       .  S
C1138      C1139   1.418       .  A
C1139      C1140   1.411       .  A
C1139      C1146   1.507       .  S
C1140      C1141   1.407       .  A
C1140      H1145   1.084       .  S
C1141      C1142   1.421       .  A
C1142      C1143   1.509       .  S
C1143      H1147   1.111       .  S
C1143      H1148   1.110       .  S
C1143      H1149   1.110       .  S
C1146      H1150   1.109       .  S
C1146      H1151   1.111       .  S
C1146      H1152   1.111       .  S
C1153      C1154   1.405       .  A
C1153      C1158   1.408       .  A
C1153      H1160   1.084       .  S
C1154      C1155   1.420       .  A
C1155      C1156   1.415       .  A
C1155      C1162   1.506       .  S
C1156      C1157   1.408       .  A
C1156      H1161   1.084       .  S
C1157      C1158   1.420       .  A
C1158      C1159   1.508       .  S
C1159      H1163   1.111       .  S
C1159      H1164   1.109       .  S
C1159      H1165   1.110       .  S
C1162      H1166   1.111       .  S
C1162      H1167   1.110       .  S
C1162      H1168   1.111       .  S
C1169      C1170   1.401       .  A
C1169      C1174   1.398       .  A
C1169      H1176   1.085       .  S
C1170      C1171   1.413       .  A
C1171      C1172   1.405       .  A
C1171      C1178   1.506       .  S
C1172      C1173   1.402       .  A
C1172      H1177   1.084       .  S
C1173      C1174   1.414       .  A
C1174      C1175   1.511       .  S
C1175      H1179   1.111       .  S
C1175      H1180   1.108       .  S
C1175      H1181   1.111       .  S
C1178      H1182   1.111       .  S
C1178      H1183   1.110       .  S
C1178      H1184   1.111       .  S
C1185      C1186   1.398       .  A
C1185      C1190   1.396       .  A
C1185      H1192   1.085       .  S
C1186      C1187   1.409       .  A
C1187      C1188   1.403       .  A
C1187      C1194   1.506       .  S
C1188      C1189   1.403       .  A
C1188      H1193   1.084       .  S
C1189      C1190   1.412       .  A
C1190      C1191   1.509       .  S
C1191      H1195   1.111       .  S
C1191      H1196   1.109       .  S
C1191      H1197   1.110       .  S
C1194      H1198   1.111       .  S
C1194      H1199   1.110       .  S
C1194      H1200   1.111       .  S
C1201      C1202   1.404       .  A
C1201      C1206   1.406       .  A
C1201      H1208   1.084       .  S
C1202      C1203   1.415       .  A
C1203      C1204   1.397       .  A
C1203      C1210   1.511       .  S
C1204      C1205   1.402       .  A
C1204      H1209   1.083       .  S
C1205      C1206   1.417       .  A
C1206      C1207   1.507       .  S
C1207      H1211   1.111       .  S
C1207      H1212   1.110       .  S
C1207      H1213   1.110       .  S
C1210      H1214   1.111       .  S
C1210      H1215   1.109       .  S
C1210      H1216   1.111       .  S
C1217      C1218   1.406       .  A
C1217      C1222   1.409       .  A
C1217      H1224   1.084       .  S
C1218      C1219   1.420       .  A
C1219      C1220   1.410       .  A
C1219      C1226   1.508       .  S
C1220      C1221   1.407       .  A
C1220      H1225   1.084       .  S
C1221      C1222   1.419       .  A
C1222      C1223   1.507       .  S
C1223      H1227   1.111       .  S
C1223      H1228   1.111       .  S
C1223      H1229   1.110       .  S
C1226      H1230   1.110       .  S
C1226      H1231   1.110       .  S
C1226      H1232   1.111       .  S
C1233      C1234   1.409       .  A
C1233      C1238   1.416       .  A
C1233      H1240   1.084       .  S
C1234      C1235   1.421       .  A
C1235      C1236   1.407       .  A
C1235      C1242   1.510       .  S
C1236      C1237   1.407       .  A
C1236      H1241   1.084       .  S
C1237      C1238   1.420       .  A
C1238      C1239   1.505       .  S
C1239      H1243   1.111       .  S
C1239      H1244   1.110       .  S
C1239      H1245   1.110       .  S
C1242      H1246   1.110       .  S
C1242      H1247   1.110       .  S
C1242      H1248   1.111       .  S
C1249      C1250   1.406       .  A
C1249      C1254   1.408       .  A
C1249      H1256   1.085       .  S
C1250      C1251   1.417       .  A
C1251      C1252   1.412       .  A
C1251      C1258   1.506       .  S
C1252      C1253   1.407       .  A
C1252      H1257   1.084       .  S
C1253      C1254   1.419       .  A
C1254      C1255   1.508       .  S
C1255      H1259   1.111       .  S
C1255      H1260   1.110       .  S
C1255      H1261   1.109       .  S
C1258      H1262   1.110       .  S
C1258      H1263   1.110       .  S
C1258      H1264   1.111       .  S
C1265      C1266   1.400       .  A
C1265      C1270   1.391       .  A
C1265      H1272   1.085       .  S
C1266      C1267   1.413       .  A
C1267      C1268   1.406       .  A
C1267      C1274   1.506       .  S
C1268      C1269   1.403       .  A
C1268      H1273   1.084       .  S
C1269      C1270   1.409       .  A
C1270      C1271   1.511       .  S
C1271      H1275   1.111       .  S
C1271      H1276   1.109       .  S
C1271      H1277   1.110       .  S
C1274      H1278   1.110       .  S
C1274      H1279   1.110       .  S
C1274      H1280   1.111       .  S
C1281      C1282   1.402       .  A
C1281      C1286   1.395       .  A
C1281      H1288   1.084       .  S
C1282      C1283   1.414       .  A
C1283      C1284   1.399       .  A
C1283      C1290   1.507       .  S
C1284      C1285   1.399       .  A
C1284      H1289   1.084       .  S
C1285      C1286   1.410       .  A
C1286      C1287   1.509       .  S
C1287      H1291   1.111       .  S
C1287      H1292   1.111       .  S
C1287      H1293   1.109       .  S
C1290      H1294   1.110       .  S
C1290      H1295   1.111       .  S
C1290      H1296   1.111       .  S
C1297      C1298   1.399       .  A
C1297      C1302   1.398       .  A
C1297      H1304   1.085       .  S
C1298      C1299   1.410       .  A
C1299      C1300   1.403       .  A
C1299      C1306   1.506       .  S
C1300      C1301   1.402       .  A
C1300      H1305   1.085       .  S
C1301      C1302   1.412       .  A
C1302      C1303   1.509       .  S
C1303      H1307   1.111       .  S
C1303      H1308   1.108       .  S
C1303      H1309   1.111       .  S
C1306      H1310   1.110       .  S
C1306      H1311   1.110       .  S
C1306      H1312   1.111       .  S
C1313      C1314   1.401       .  A
C1313      C1318   1.396       .  A
C1313      H1320   1.084       .  S
C1314      C1315   1.414       .  A
C1315      C1316   1.405       .  A
C1315      C1322   1.507       .  S
C1316      C1317   1.406       .  A
C1316      H1321   1.083       .  S
C1317      C1318   1.414       .  A
C1318      C1319   1.509       .  S
C1319      H1323   1.111       .  S
C1319      H1324   1.111       .  S
C1319      H1325   1.109       .  S
C1322      H1326   1.110       .  S
C1322      H1327   1.110       .  S
C1322      H1328   1.111       .  S
C1329      C1330   1.407       .  A
C1329      C1334   1.411       .  A
C1329      H1336   1.084       .  S
C1330      C1331   1.419       .  A
C1331      C1332   1.406       .  A
C1331      C1338   1.509       .  S
C1332      C1333   1.406       .  A
C1332      H1337   1.084       .  S
C1333      C1334   1.418       .  A
C1334      C1335   1.506       .  S
C1335      H1339   1.111       .  S
C1335      H1340   1.110       .  S
C1335      H1341   1.110       .  S
C1338      H1342   1.110       .  S
C1338      H1343   1.110       .  S
C1338      H1344   1.111       .  S
C1345      C1346   1.408       .  A
C1345      C1350   1.414       .  A
C1345      H1352   1.084       .  S
C1346      C1347   1.418       .  A
C1347      C1348   1.404       .  A
C1347      C1354   1.509       .  S
C1348      C1349   1.404       .  A
C1348      H1353   1.084       .  S
C1349      C1350   1.419       .  A
C1350      C1351   1.506       .  S
C1351      H1355   1.111       .  S
C1351      H1356   1.110       .  S
C1351      H1357   1.110       .  S
C1354      H1358   1.111       .  S
C1354      H1359   1.109       .  S
C1354      H1360   1.111       .  S
C1361      C1362   1.406       .  A
C1361      C1366   1.406       .  A
C1361      H1368   1.084       .  S
C1362      C1363   1.420       .  A
C1363      C1364   1.413       .  A
C1363      C1370   1.506       .  S
C1364      C1365   1.409       .  A
C1364      H1369   1.084       .  S
C1365      C1366   1.419       .  A
C1366      C1367   1.509       .  S
C1367      H1371   1.111       .  S
C1367      H1372   1.110       .  S
C1367      H1373   1.110       .  S
C1370      H1374   1.110       .  S
C1370      H1375   1.110       .  S
C1370      H1376   1.111       .  S
C1377      C1378   1.405       .  A
C1377      C1382   1.403       .  A
C1377      H1384   1.084       .  S
C1378      C1379   1.419       .  A
C1379      C1380   1.411       .  A
C1379      C1386   1.506       .  S
C1380      C1381   1.408       .  A
C1380      H1385   1.084       .  S
C1381      C1382   1.418       .  A
C1382      C1383   1.509       .  S
C1383      H1387   1.111       .  S
C1383      H1388   1.109       .  S
C1383      H1389   1.111       .  S
C1386      H1390   1.110       .  S
C1386      H1391   1.111       .  S
C1386      H1392   1.111       .  S
