geometry optimzed in LAMMPS
_audit_creation_date              2020-11-30 
_audit_creation_method            'lammps2cif' 
_symmetry_space_group_name_H-M    'P1' 
_symmetry_Int_Tables_number       1 
_symmetry_cell_setting            triclinic 
loop_ 
_symmetry_equiv_pos_as_xyz 
  x,y,z 
_cell_length_a                    43.56761936 
_cell_length_b                    43.48701163031199 
_cell_length_c                    29.620715224575147 
_cell_angle_alpha                 89.92889145525396 
_cell_angle_beta                  90.25513599972125 
_cell_angle_gamma                 120.27828770886997 
loop_ 
_atom_site_label 
_atom_site_type_symbol 
_atom_site_fract_x 
_atom_site_fract_y 
_atom_site_fract_z 
_atom_site_charge 
O1          O  0.28401005  0.61893218  0.44329519    -0.82200
C2          C  0.40402735  0.70248154  0.55595412     0.97200
O3          O  0.39712198  0.67509850  0.53342580    -0.71300
O4          O  0.33551472  0.61865914  0.55086210    -0.74900
Al5        Al  0.35825936  0.64263234  0.49664651     1.49000
C6          C  0.30243534  0.60128139  0.55727464     0.92500
O7          O  0.28766864  0.67046709  0.54877358    -0.81100
O8          O  0.34052536  0.71886943  0.43974941    -0.74600
Al9        Al  0.28903897  0.64618681  0.49582657     1.90100
O10         O  0.33020265  0.72378579  0.52984804    -0.73700
O11         O  0.39955394  0.71869966  0.45701446    -0.73600
O12         O  0.38712833  0.71854291  0.54844053    -0.79200
O13         O  0.38402692  0.66322641  0.44287832    -0.77400
O14         O  0.33647033  0.66817090  0.49540011    -1.13600
O15         O  0.32407836  0.60435482  0.45989990    -0.72700
C16         C  0.29714168  0.59918242  0.43755752     0.98000
C17         C  0.30290033  0.70385160  0.55280549     0.94400
Al18       Al  0.36214114  0.71576423  0.49401066     1.55600
O19         O  0.28199313  0.60789478  0.53433110    -0.77400
C20         C  0.40333731  0.69601457  0.43493535     0.98500
C21         C  0.30758536  0.70522436  0.43296757     0.93400
O22         O  0.28559068  0.67952726  0.45694633    -0.82700
C23         C  0.36735641  0.19518523  0.25572014     0.86100
C24         C  0.34382704  0.15477789  0.26263380    -0.54100
C25         C  0.31480116  0.13885490  0.23505923     0.09100
C26         C  0.31111054  0.16485847  0.20332955     0.20000
C27         C  0.37561274  0.19986758  0.20484329    -0.54800
C28         C  0.34639433  0.18408401  0.17736555     0.09200
C29         C  0.34148008  0.20949061  0.26197468    -0.54400
C30         C  0.31201595  0.19373416  0.23445130     0.09700
H31         H  0.35073191  0.13964768  0.28553720     0.14200
H32         H  0.28758126  0.15189115  0.18070628     0.00000
H33         H  0.40253899  0.21375474  0.19181952     0.14600
H34         H  0.34547692  0.23026039  0.28536233     0.14300
C35         C  0.80428906  0.61551384  0.76919022     0.86100
C36         C  0.84424812  0.63688549  0.75920111    -0.54100
C37         C  0.86213454  0.66848335  0.78164713     0.09100
C38         C  0.83861178  0.67620054  0.81265736     0.20000
C39         C  0.80246802  0.61191947  0.82131353    -0.54800
C40         C  0.82100843  0.64359572  0.84406086     0.09200
C41         C  0.79049004  0.64119414  0.75968953    -0.54400
C42         C  0.80843223  0.67288618  0.78200191     0.09700
H43         H  0.85744905  0.62747068  0.73678244     0.14200
H44         H  0.85342903  0.70205266  0.83072630     0.00000
H45         H  0.78784431  0.58715335  0.83955701     0.14600
H46         H  0.76778351  0.63451017  0.73801137     0.14300
C47         C  0.37492112  0.18501484  0.76047127     0.86100
C48         C  0.35338669  0.20367133  0.75214697    -0.54100
C49         C  0.32362494  0.19114758  0.77803140     0.09100
C50         C  0.31721477  0.16029675  0.80919094     0.20000
C51         C  0.38159210  0.18763703  0.81175749    -0.54800
C52         C  0.35155323  0.17491267  0.83721123     0.09200
C53         C  0.34761501  0.14519955  0.75241977    -0.54400
C54         C  0.31755910  0.13222153  0.77800843     0.09700
H55         H  0.36150604  0.22561547  0.72865526     0.14200
H56         H  0.29278991  0.15021552  0.82983404     0.00000
H57         H  0.40798075  0.19941493  0.82659980     0.14600
H58         H  0.35111736  0.12779040  0.72974450     0.14300
C59         C  0.18628588  0.81289732  0.74090388     0.86100
C60         C  0.20008761  0.85299853  0.73364939    -0.54100
C61         C  0.18429995  0.86649134  0.76051201     0.09100
C62         C  0.15556967  0.83887740  0.79150958     0.20000
C63         C  0.19059185  0.80961035  0.79192863    -0.54800
C64         C  0.17462459  0.82318260  0.81828187     0.09200
C65         C  0.14581583  0.79557462  0.73306605    -0.54400
C66         C  0.12949823  0.80831590  0.76052297     0.09700
H67         H  0.22083644  0.87001894  0.71031043     0.14200
H68         H  0.14291827  0.85028800  0.81293982     0.00000
H69         H  0.20575967  0.79823268  0.80590862     0.14600
H70         H  0.13105629  0.77408465  0.70922734     0.14300
C71         C  0.20188245  0.81618809  0.23060116     0.86100
C72         C  0.16306653  0.80075884  0.24509725    -0.54100
C73         C  0.14550174  0.81554418  0.22425131     0.09100
C74         C  0.16863928  0.84422325  0.18921891     0.20000
C75         C  0.19960788  0.81121329  0.17893358    -0.54800
C76         C  0.18243996  0.82598893  0.15743460     0.09200
C77         C  0.21926157  0.85670279  0.23675076    -0.54400
C78         C  0.20198902  0.87154521  0.21536568     0.09700
H79         H  0.15040621  0.77881674  0.26876178     0.14200
H80         H  0.15468563  0.85622406  0.17167776     0.00000
H81         H  0.21116429  0.79850857  0.15967513     0.14600
H82         H  0.24367921  0.87238355  0.25581701     0.14300
C83         C  0.82289194  0.62735386  0.26114912     0.86100
C84         C  0.80568734  0.65054206  0.26474554    -0.54100
C85         C  0.82160897  0.68085136  0.23918627     0.09100
C86         C  0.85398459  0.68547313  0.21250714     0.20000
C87         C  0.82377327  0.62085157  0.21010228    -0.54800
C88         C  0.83944224  0.65110599  0.18462288     0.09200
C89         C  0.86230503  0.65264697  0.27315626    -0.54400
C90         C  0.87882349  0.68284580  0.24759746     0.09700
H91         H  0.78194838  0.64277993  0.28453518     0.14200
H92         H  0.86686407  0.70997025  0.19177713     0.00000
H93         H  0.81221342  0.59454740  0.19507411     0.14600
H94         H  0.87724152  0.64665811  0.29727256     0.14300
C95         C  0.61985489  0.80029065  0.23188775     0.86100
C96         C  0.64345548  0.84043244  0.24034696    -0.54100
C97         C  0.67537888  0.85616288  0.21836808     0.09100
C98         C  0.68011209  0.83008969  0.18788756     0.20000
C99         C  0.61574749  0.79748002  0.17998989    -0.54800
C100        C  0.64714496  0.81354712  0.15705255     0.09200
C101        C  0.64359663  0.78455626  0.24262721    -0.54400
C102        C  0.67467245  0.79923539  0.21891558     0.09700
H103        H  0.63490102  0.85526953  0.26109508     0.14200
H104        H  0.70556098  0.84266610  0.16909618     0.00000
H105        H  0.59083732  0.78438232  0.16182284     0.14600
H106        H  0.63597660  0.76316770  0.26681892     0.14300
C107        C  0.19891245  0.38440567  0.76021945     0.86100
C108        C  0.15865219  0.36120613  0.75093278    -0.54100
C109        C  0.14127578  0.33091042  0.77666749     0.09100
C110        C  0.16683470  0.32615688  0.80822751     0.20000
C111        C  0.20213330  0.39069735  0.81146183    -0.54800
C112        C  0.18545232  0.36027820  0.83636756     0.09200
C113        C  0.21221664  0.35815137  0.75142038    -0.54400
C114        C  0.19583002  0.32808316  0.77721750     0.09700
H115        H  0.14531927  0.36800676  0.72520338     0.14200
H116        H  0.15461292  0.30222470  0.82989806     0.00000
H117        H  0.21585201  0.41703931  0.82662759     0.14600
H118        H  0.23258525  0.36240039  0.72725711     0.14300
C119        C  0.81772939  0.19626437  0.75596481     0.86100
C120        C  0.80275274  0.15704045  0.74223718    -0.54100
C121        C  0.81642412  0.13979812  0.76602373     0.09100
C122        C  0.84521003  0.16366806  0.80030766     0.20000
C123        C  0.81266179  0.19528017  0.80731040    -0.54800
C124        C  0.82676909  0.17810377  0.83083361     0.09200
C125        C  0.85801562  0.21269561  0.74924296    -0.54400
C126        C  0.87251634  0.19640558  0.77351110     0.09700
H127        H  0.78251222  0.14346641  0.71650481     0.14200
H128        H  0.85656676  0.14930983  0.81830153     0.00000
H129        H  0.79900263  0.20737452  0.82348627     0.14600
H130        H  0.87424517  0.23564769  0.72821504     0.14300
C131        C  0.63187436  0.81855053  0.74084800     0.86100
C132        C  0.65301280  0.79939693  0.73402003    -0.54100
C133        C  0.68362657  0.81314300  0.75878684     0.09100
C134        C  0.69107635  0.84557474  0.78747263     0.20000
C135        C  0.62699882  0.81857006  0.79235699    -0.54800
C136        C  0.65775360  0.83182267  0.81718122     0.09200
C137        C  0.65857568  0.85799416  0.73008835    -0.54400
C138        C  0.68934398  0.87209489  0.75447470     0.09700
H139        H  0.64372713  0.77594704  0.71284906     0.14200
H140        H  0.71649234  0.85658758  0.80623432     0.00000
H141        H  0.60103145  0.80792081  0.80777298     0.14600
H142        H  0.65325327  0.87492839  0.70863459     0.14300
C143        C  0.79324993  0.17746289  0.24450304     0.86100
C144        C  0.83341581  0.19514480  0.25372427    -0.54100
C145        C  0.85037653  0.18105025  0.23002205     0.09100
C146        C  0.82503734  0.14985388  0.19925293     0.20000
C147        C  0.79045887  0.17935828  0.19266056    -0.54800
C148        C  0.80752042  0.16547727  0.16921623     0.09200
C149        C  0.77821020  0.13744980  0.25309530    -0.54400
C150        C  0.79479135  0.12289491  0.22958947     0.09700
H151        H  0.84745003  0.21818791  0.27562720     0.14200
H152        H  0.83800036  0.13778736  0.17989373     0.00000
H153        H  0.77523865  0.18898769  0.17491951     0.14600
H154        H  0.75554918  0.12172395  0.27478961     0.14300
C155        C  0.17763297  0.37294458  0.25007907     0.86100
C156        C  0.18627167  0.34347368  0.26150348    -0.54100
C157        C  0.16737462  0.31268504  0.23703566     0.09100
C158        C  0.14172370  0.31458678  0.20267025     0.20000
C159        C  0.18454196  0.37802692  0.19900388    -0.54800
C160        C  0.16538405  0.34778490  0.17436505     0.09200
C161        C  0.13717060  0.35510086  0.25521132    -0.54400
C162        C  0.11823328  0.32463850  0.23048345     0.09700
H163        H  0.20816002  0.34778933  0.28320303     0.14200
H164        H  0.12632773  0.29019706  0.18195475     0.00000
H165        H  0.20320696  0.40320955  0.18338935     0.14600
H166        H  0.12479582  0.36533512  0.27770020     0.14300
O167        O  0.61436343  0.33305439  0.45036190    -0.82200
C168        C  0.69954171  0.29971281  0.56334287     0.97200
O169        O  0.67221363  0.27829281  0.54115787    -0.71300
O170        O  0.61527111  0.28278850  0.56039355    -0.74900
Al171      Al  0.63850011  0.28403799  0.50566740     1.49000
C172        C  0.59674548  0.29731282  0.56600101     0.92500
O173        O  0.66291349  0.38114923  0.55717932    -0.81100
O174        O  0.71357690  0.37963175  0.45005880    -0.74600
Al175      Al  0.64010535  0.35569366  0.50394047     1.90100
O176        O  0.71701304  0.39339118  0.54101999    -0.73700
O177        O  0.71406114  0.32052491  0.46636599    -0.73600
O178        O  0.71366285  0.33276666  0.55765288    -0.79200
O179        O  0.65880813  0.27993298  0.45137988    -0.77400
O180        O  0.66310760  0.33149470  0.50443173    -1.13600
O181        O  0.59922190  0.27876408  0.46992738    -0.72700
C182        C  0.59430772  0.29988221  0.44569139     0.98000
C183        C  0.69599289  0.39901441  0.56403158     0.94400
Al184      Al  0.71049395  0.35457595  0.50379360     1.55600
O185        O  0.60178036  0.32322521  0.54145383    -0.77400
C186        C  0.69163247  0.29380046  0.44388703     0.98500
C187        C  0.70001615  0.39895761  0.44408563     0.93400
O188        O  0.67334238  0.39362615  0.46679981    -0.82700
C189        C  0.77564135  0.19399802  0.27300493    -0.20200
C190        C  0.77220557  0.18900240  0.32059024     0.36000
C191        C  0.75574189  0.20402433  0.34591779    -0.26200
C192        C  0.74368121  0.22500136  0.32541923     0.02400
C193        C  0.74753236  0.23085209  0.27868196     0.27200
C194        C  0.76366604  0.21572519  0.25310714    -0.25300
N195        N  0.78544354  0.16872556  0.34326886    -0.82700
H196        H  0.75315374  0.20019707  0.38216159     0.13000
C197        C  0.72904356  0.24257109  0.35374338     0.02400
N198        N  0.73533012  0.25255744  0.25746713    -0.81300
H199        H  0.76754538  0.22235624  0.21782763     0.17900
C200        C  0.74910754  0.27953229  0.36003669    -0.26100
C201        C  0.73692658  0.29717572  0.38804096     0.35900
C202        C  0.70405731  0.27725244  0.41044213    -0.20100
C203        C  0.68353770  0.24035049  0.40290701    -0.25400
C204        C  0.69570425  0.22281919  0.37468694     0.27300
H205        H  0.77455500  0.29456203  0.34333162     0.13000
N206        N  0.75775507  0.33515643  0.39370395    -0.82700
H207        H  0.65831758  0.22496143  0.42000259     0.17900
N208        N  0.67453063  0.18505691  0.36739702    -0.81300
H209        H  0.78123188  0.34569219  0.37505988     0.33500
H210        H  0.74310626  0.34604362  0.38019033     0.38000
H211        H  0.65080506  0.17440913  0.38553945     0.33500
H212        H  0.66746846  0.18101141  0.33322422     0.30200
H213        H  0.74024450  0.25458281  0.22276036     0.33500
H214        H  0.70773085  0.23957009  0.26119619     0.30200
H215        H  0.81315869  0.18324856  0.34174441     0.38000
H216        H  0.77901512  0.16598704  0.37756904     0.33500
C217        C  0.07878838  0.30213442  0.23195514    -0.20200
C218        C  0.05621217  0.31679572  0.23081847     0.36000
C219        C  0.01915983  0.29388391  0.23188682    -0.26200
C220        C  0.00428848  0.25690921  0.23484944     0.02400
C221        C  0.02661951  0.24230166  0.23720755     0.27200
C222        C  0.06364162  0.26502557  0.23505799    -0.25300
N223        N  0.07074589  0.35468514  0.22857932    -0.82700
H224        H  0.00167396  0.30483636  0.23031213     0.13000
C225        C  0.96512756  0.23398572  0.23508348     0.02400
N226        N  0.01158549  0.20452067  0.24216073    -0.81300
H227        H  0.08082024  0.25374577  0.23699977     0.17900
C228        C  0.94734190  0.21871129  0.19458685    -0.26100
C229        C  0.91001715  0.20086871  0.19192118     0.35900
C230        C  0.88994811  0.19712576  0.23128383    -0.20100
C231        C  0.90816277  0.21104476  0.27234132    -0.25400
C232        C  0.94551363  0.22973241  0.27448379     0.27300
H233        H  0.96278398  0.22239817  0.16438440     0.13000
N234        N  0.89291367  0.18870548  0.14880373    -0.82700
H235        H  0.89321234  0.20790343  0.30281713     0.17900
N236        N  0.96372035  0.24524429  0.31621326    -0.81300
H237        H  0.91134534  0.19222274  0.12390471     0.33500
H238        H  0.88269347  0.20502423  0.13979894     0.38000
H239        H  0.94549147  0.24012339  0.34205708     0.33500
H240        H  0.97784673  0.23259778  0.32529328     0.30200
H241        H  0.03166004  0.19806100  0.24337297     0.33500
H242        H  0.99883675  0.19731984  0.27344707     0.30200
H243        H  0.08381093  0.36361898  0.19777431     0.38000
H244        H  0.05047278  0.36089564  0.22874511     0.35100
C245        C  0.79999957  0.21476284  0.73209634    -0.20200
C246        C  0.81734362  0.25220692  0.72524674     0.36000
C247        C  0.80034956  0.26670107  0.69961113    -0.26200
C248        C  0.76545606  0.24520437  0.68390947     0.02400
C249        C  0.74639734  0.20911648  0.69632618     0.27200
C250        C  0.76366424  0.19438976  0.72042949    -0.25300
N251        N  0.85152453  0.27556843  0.74513883    -0.82700
H252        H  0.81435481  0.29488280  0.69180171     0.13000
C253        C  0.74911784  0.26019742  0.65354781     0.02400
N254        N  0.70946732  0.18758727  0.68433002    -0.81300
H255        H  0.74829035  0.16674531  0.73033921     0.17900
C256        C  0.73821022  0.24546557  0.61029479    -0.26100
C257        C  0.72171675  0.25786010  0.58053426     0.35900
C258        C  0.71624742  0.28578677  0.59427895    -0.20100
C259        C  0.72777121  0.30107538  0.63718951    -0.25400
C260        C  0.74364156  0.28809116  0.66736257     0.27300
H261        H  0.74271694  0.22421149  0.59973765     0.13000
N262        N  0.71106507  0.24263402  0.53613280    -0.82700
H263        H  0.72356569  0.32256647  0.64751062     0.17900
N264        N  0.75351647  0.30252004  0.71217143    -0.81300
H265        H  0.71677582  0.22221156  0.53148807     0.33500
H266        H  0.72641489  0.26247571  0.51271115     0.38000
H267        H  0.74750991  0.32271303  0.71705663     0.33500
H268        H  0.73779002  0.28219278  0.73484539     0.30200
H269        H  0.69916158  0.16149885  0.69593578     0.33500
H270        H  0.69564725  0.19799578  0.70112539     0.30200
H271        H  0.84840904  0.27365247  0.78019636     0.38000
H272        H  0.86034157  0.30208896  0.73674271     0.33500
C273        C  0.82283003  0.17280087  0.88074483    -0.20200
C274        C  0.84976431  0.17338338  0.90842130     0.36000
C275        C  0.84452156  0.16870979  0.95521198    -0.26200
C276        C  0.81361361  0.16450741  0.97504374     0.02400
C277        C  0.78657086  0.16348349  0.94796210     0.27200
C278        C  0.79124037  0.16721657  0.90105142    -0.25300
N279        N  0.88291866  0.18022110  0.88957243    -0.82700
H280        H  0.86527155  0.16980378  0.97667288     0.13000
C281        C  0.81119024  0.16393421  0.02461445     0.02400
N282        N  0.75473162  0.15910506  0.96838007    -0.81300
H283        H  0.76999491  0.16571638  0.88031350     0.17900
C284        C  0.81699709  0.19479626  0.04684257    -0.26100
C285        C  0.81665595  0.19621329  0.09408419     0.35900
C286        C  0.80892969  0.16552343  0.11930795    -0.20100
C287        C  0.80347413  0.13474875  0.09688401    -0.25400
C288        C  0.80481244  0.13375750  0.04960669     0.27300
H289        H  0.82272732  0.21811990  0.02717126     0.13000
N290        N  0.82520104  0.22894182  0.11646396    -0.82700
H291        H  0.79785207  0.11134189  0.11626416     0.17900
N292        N  0.79993339  0.10243232  0.02682270    -0.81300
H293        H  0.83044373  0.24891278  0.09293705     0.33500
H294        H  0.84874499  0.23742353  0.13470684     0.38000
H295        H  0.79594971  0.08271612  0.05018499     0.33500
H296        H  0.77665174  0.09228765  0.00757094     0.30200
H297        H  0.73753891  0.15930106  0.94378833     0.33500
H298        H  0.74157097  0.13392324  0.98337687     0.30200
H299        H  0.89603495  0.20628349  0.87833196     0.38000
H300        H  0.89928673  0.17863213  0.91460588     0.33500
C301        C  0.80069415  0.10054836  0.76365059    -0.20200
C302        C  0.76375382  0.07768892  0.76918809     0.36000
C303        C  0.74929950  0.04075698  0.76615842    -0.26200
C304        C  0.77093818  0.02584192  0.75944659     0.02400
C305        C  0.80795864  0.04859621  0.75428659     0.27200
C306        C  0.82251484  0.08584930  0.75656579    -0.25300
N307        N  0.74113472  0.09204769  0.77905050    -0.82700
H308        H  0.72088624  0.02330798  0.76996362     0.13000
C309        C  0.75386516  0.98629388  0.75993684     0.02400
N310        N  0.83055754  0.03383678  0.74723008    -0.81300
H311        H  0.85088535  0.10347998  0.75267941     0.17900
C312        C  0.75539722  0.96794396  0.72172089    -0.26100
C313        C  0.73550279  0.93038539  0.71964409     0.35900
C314        C  0.71391109  0.91110961  0.75644899    -0.20100
C315        C  0.71253189  0.92944969  0.79437738    -0.25400
C316        C  0.73286882  0.96666979  0.79706536     0.27300
H317        H  0.77107261  0.98296586  0.69294243     0.13000
N318        N  0.73608125  0.91179940  0.67987713    -0.82700
H319        H  0.69420514  0.91471757  0.82121165     0.17900
N320        N  0.73162590  0.98479264  0.83698177    -0.81300
H321        H  0.75298164  0.92982922  0.65563120     0.33500
H322        H  0.74690530  0.89599145  0.68896446     0.38000
H323        H  0.71468091  0.96655278  0.86100210     0.33500
H324        H  0.75709280  0.99769124  0.85125824     0.30200
H325        H  0.85703150  0.05415438  0.74388592     0.33500
H326        H  0.82934700  0.01953353  0.77620951     0.30200
H327        H  0.74874100  0.10451885  0.81058913     0.38000
H328        H  0.71467032  0.07167299  0.78208246     0.33500
C329        C  0.16715747  0.34788112  0.12476039    -0.20200
C330        C  0.15025969  0.36228649  0.09891884     0.36000
C331        C  0.15456725  0.36469954  0.05195532    -0.26200
C332        C  0.17491837  0.35234857  0.03050764     0.02400
C333        C  0.19134241  0.33732132  0.05632149     0.27200
C334        C  0.18756270  0.33555453  0.10349691    -0.25300
N335        N  0.12866891  0.37418555  0.12060703    -0.82700
H336        H  0.14185223  0.37602360  0.03187006     0.13000
C337        C  0.17776129  0.35438379  0.98078397     0.02400
N338        N  0.21159230  0.32386424  0.03447054    -0.81300
H339        H  0.20093771  0.32505607  0.12374030     0.17900
C340        C  0.21104630  0.37560493  0.96059608    -0.26100
C341        C  0.21440451  0.37814129  0.91335931     0.35900
C342        C  0.18371691  0.35949846  0.88621008    -0.20100
C343        C  0.15054518  0.33820357  0.90654505    -0.25400
C344        C  0.14725324  0.33535567  0.95359229     0.27300
H345        H  0.23438706  0.39005787  0.98180039     0.13000
N346        N  0.24877647  0.39885502  0.89292908    -0.82700
H347        H  0.12705974  0.32375281  0.88556619     0.17900
N348        N  0.11312343  0.31307508  0.97397385    -0.81300
H349        H  0.26852604  0.41084662  0.91768377     0.33500
H350        H  0.25413546  0.38132062  0.87518070     0.38000
H351        H  0.09337079  0.30100009  0.94923505     0.33500
H352        H  0.11419691  0.29254442  0.99097611     0.30200
H353        H  0.22183974  0.31361423  0.05830584     0.33500
H354        H  0.19412330  0.30249241  0.01403956     0.30200
H355        H  0.10672725  0.35160672  0.13402057     0.38000
H356        H  0.11864655  0.38475411  0.09691438     0.33500
C357        C  0.10149237  0.30738471  0.77608332    -0.20200
C358        C  0.08372853  0.27083184  0.78799764     0.36000
C359        C  0.04634168  0.25125172  0.78986258    -0.26200
C360        C  0.02595386  0.26667812  0.77750453     0.02400
C361        C  0.04348199  0.30242543  0.76295755     0.27200
C362        C  0.08066943  0.32252244  0.76399706    -0.25300
N363        N  0.10307911  0.25291633  0.79692838    -0.82700
H364        H  0.03320824  0.22374226  0.80080051     0.13000
C365        C  0.98639183  0.24594041  0.78034836     0.02400
N366        N  0.02336304  0.31823178  0.74688856    -0.81300
H367        H  0.09318829  0.35045709  0.75556804     0.17900
C368        C  0.96905612  0.26129525  0.80269100    -0.26100
C369        C  0.93209626  0.24565407  0.80162804     0.35900
C370        C  0.91144808  0.21270979  0.77888699    -0.20100
C371        C  0.92844382  0.19607173  0.75894840    -0.25400
C372        C  0.96582139  0.21260549  0.75882287     0.27300
H373        H  0.98457387  0.28643313  0.82024145     0.13000
N374        N  0.91681307  0.26443696  0.82329967    -0.82700
H375        H  0.91254573  0.17087701  0.74168425     0.17900
N376        N  0.98288867  0.19628586  0.73565448    -0.81300
H377        H  0.92439882  0.26779117  0.85737923     0.33500
H378        H  0.88921694  0.24993266  0.82307518     0.38000
H379        H  0.96398167  0.17191535  0.72159027     0.33500
H380        H  0.99718004  0.21285921  0.70873400     0.30200
H381        H  0.04020065  0.34473316  0.73740064     0.33500
H382        H  0.00988203  0.30453767  0.71766889     0.30200
H383        H  0.09673318  0.24228841  0.82950383     0.38000
H384        H  0.09447453  0.23176044  0.77415916     0.33500
C385        C  0.70107275  0.89527227  0.22131331    -0.20200
C386        C  0.70691140  0.91392322  0.26251062     0.36000
C387        C  0.72568675  0.95133501  0.26252898    -0.26200
C388        C  0.73991940  0.97053511  0.22265576     0.02400
C389        C  0.73720537  0.95214412  0.18231739     0.27200
C390        C  0.71770277  0.91458100  0.18197805    -0.25300
N391        N  0.69342329  0.89479244  0.30411644    -0.82700
H392        H  0.72852970  0.96568267  0.29360837     0.13000
C393        C  0.75432122  0.00957100  0.22316729     0.02400
N394        N  0.75340012  0.97169517  0.14173196    -0.81300
H395        H  0.71391280  0.90051884  0.15042291     0.17900
C396        C  0.79102959  0.03314275  0.22667241    -0.26100
C397        C  0.80490674  0.07022779  0.22956222     0.35900
C398        C  0.78150555  0.08385839  0.22851342    -0.20100
C399        C  0.74475656  0.06002621  0.22473501    -0.25400
C400        C  0.73097669  0.02309500  0.22199269     0.27300
H401        H  0.80877796  0.02250233  0.22788848     0.13000
N402        N  0.84253328  0.09395004  0.23447695    -0.82700
H403        H  0.72670863  0.07029306  0.22309830     0.17900
N404        N  0.69328861  0.99911599  0.21819538    -0.81300
H405        H  0.85599244  0.07971714  0.23472865     0.33500
H406        H  0.84695926  0.10634156  0.26598265     0.38000
H407        H  0.67969136  0.01321113  0.21820157     0.33500
H408        H  0.68838155  0.98647044  0.18680489     0.30200
H409        H  0.74934808  0.95425667  0.11511588     0.33500
H410        H  0.74051222  0.98561679  0.13277620     0.30200
H411        H  0.70618258  0.88024255  0.30991684     0.38000
H412        H  0.69996527  0.91241792  0.33125236     0.33500
C413        C  0.65769258  0.82836585  0.86751134    -0.20200
C414        C  0.68540591  0.85363228  0.89548752     0.36000
C415        C  0.68349046  0.84887603  0.94242367    -0.26200
C416        C  0.65459028  0.81941152  0.96230731     0.02400
C417        C  0.62739931  0.79353810  0.93497590     0.27200
C418        C  0.62925151  0.79817197  0.88793544    -0.25300
N419        N  0.71526403  0.88464543  0.87709205    -0.82700
H420        H  0.70442950  0.86876344  0.96363228     0.13000
C421        C  0.65247426  0.81687938  0.01200784     0.02400
N422        N  0.59806676  0.76270742  0.95520216    -0.81300
H423        H  0.60851134  0.77771015  0.86717412     0.17900
C424        C  0.62838235  0.82393177  0.03412789    -0.26100
C425        C  0.62664203  0.82367979  0.08140438     0.35900
C426        C  0.64889326  0.81520180  0.10698156    -0.20100
C427        C  0.67304608  0.80814276  0.08463510    -0.25400
C428        C  0.67503269  0.80889574  0.03723430     0.27300
H429        H  0.61147741  0.83048978  0.01433780     0.13000
N430        N  0.60306020  0.83292933  0.10347453    -0.82700
H431        H  0.69000091  0.80150793  0.10416073     0.17900
N432        N  0.69971637  0.80154216  0.01450315    -0.81300
H433        H  0.58854534  0.83834270  0.07979443     0.33500
H434        H  0.61871149  0.85650222  0.12148404     0.38000
H435        H  0.71444856  0.79618685  0.03791577     0.33500
H436        H  0.68493719  0.77830784  0.99554053     0.30200
H437        H  0.58016453  0.74620160  0.93042761     0.33500
H438        H  0.60819665  0.74806642  0.97074307     0.30200
H439        H  0.73826021  0.88419038  0.88613692     0.38000
H440        H  0.71665250  0.90704110  0.89218756     0.33500
C441        C  0.71624002  0.42953911  0.41238541    -0.20200
C442        C  0.75048459  0.44248083  0.39403896     0.36000
C443        C  0.76618424  0.47392597  0.36855905    -0.26200
C444        C  0.74881047  0.49333172  0.36179382     0.02400
C445        C  0.71451116  0.48040128  0.37956572     0.27200
C446        C  0.69837056  0.44838066  0.40393274    -0.25300
N447        N  0.77003465  0.42463853  0.40234883    -0.82700
H448        H  0.79253394  0.48373743  0.35483691     0.13000
C449        C  0.76741003  0.52779243  0.33746466     0.02400
N450        N  0.69673709  0.50047834  0.37416501    -0.81300
H451        H  0.67213781  0.43885592  0.41782920     0.17900
C452        C  0.75180993  0.53297617  0.29897604    -0.26100
C453        C  0.76887934  0.56515341  0.27500382     0.35900
C454        C  0.80299174  0.59278928  0.28870859    -0.20100
C455        C  0.81749186  0.58783102  0.32896099    -0.25400
C456        C  0.80026232  0.55570431  0.35310291     0.27300
H457        H  0.72620487  0.51178290  0.28726332     0.13000
N458        N  0.75136632  0.56950231  0.23654749    -0.82700
H459        H  0.84176857  0.60899880  0.34313922     0.17900
N460        N  0.81583439  0.55142761  0.39384438    -0.81300
H461        H  0.74623330  0.54928841  0.21340063     0.33500
H462        H  0.72698861  0.56611951  0.24705990     0.38000
H463        H  0.84027139  0.57426706  0.40065743     0.33500
H464        H  0.79898321  0.54850299  0.42058525     0.30200
H465        H  0.67166582  0.48727726  0.38926330     0.33500
H466        H  0.71158134  0.52448703  0.39160504     0.30200
H467        H  0.79378337  0.44246283  0.41870370     0.38000
H468        H  0.77638593  0.41801525  0.37122716     0.33500
C469        C  0.80648404  0.70478603  0.23504036    -0.20200
C470        C  0.80172026  0.71672555  0.19259536     0.36000
C471        C  0.78369626  0.73584617  0.18969712    -0.26200
C472        C  0.76997904  0.74295362  0.22838900     0.02400
C473        C  0.77550458  0.73210279  0.27095249     0.27200
C474        C  0.79382035  0.71324415  0.27391844    -0.25300
N475        N  0.81319602  0.70777556  0.15202663    -0.82700
H476        H  0.77902378  0.74380666  0.15687631     0.13000
C477        C  0.74645090  0.75812522  0.22374520     0.02400
N478        N  0.76133296  0.73924192  0.31073208    -0.81300
H479        H  0.79754284  0.70440185  0.30663354     0.17900
C480        C  0.70972277  0.73474186  0.22326659    -0.26100
C481        C  0.68601204  0.74753197  0.22128428     0.35900
C482        C  0.69915902  0.78465480  0.22020336    -0.20100
C483        C  0.73612631  0.80806620  0.21950578    -0.25400
C484        C  0.75995681  0.79511108  0.22154938     0.27300
H485        H  0.69936561  0.70626034  0.22457557     0.13000
N486        N  0.64861616  0.72255038  0.21935660    -0.82700
H487        H  0.74645466  0.83652171  0.21850043     0.17900
N488        N  0.79769659  0.81923476  0.22176706    -0.81300
H489        H  0.64173291  0.70651466  0.24816661     0.33500
H490        H  0.64351085  0.70625434  0.19111592     0.38000
H491        H  0.80329991  0.84557262  0.21973378     0.33500
H492        H  0.80756458  0.81668558  0.25292324     0.30200
H493        H  0.76725006  0.72910398  0.33939798     0.33500
H494        H  0.77423101  0.76686164  0.31486364     0.30200
H495        H  0.79103506  0.69332560  0.13117091     0.38000
H496        H  0.83077018  0.73143277  0.13544523     0.33500
C497        C  0.10699228  0.80280946  0.23218529    -0.20200
C498        C  0.09094101  0.79054267  0.27499770     0.36000
C499        C  0.05377554  0.77392822  0.27895625    -0.26200
C500        C  0.03240782  0.77038112  0.24157915     0.02400
C501        C  0.04843672  0.78489155  0.19976683     0.27200
C502        C  0.08552635  0.80109196  0.19557517    -0.25300
N503        N  0.11229474  0.79507605  0.31432144    -0.82700
H504        H  0.04126063  0.76316386  0.31119848     0.13000
C505        C  0.99320756  0.74853566  0.24558915     0.02400
N506        N  0.02684771  0.78201372  0.16134612    -0.81300
H507        H  0.09732321  0.81093078  0.16292242     0.17900
C508        C  0.97213863  0.76443950  0.24201774    -0.26100
C509        C  0.93481954  0.74372837  0.24390260     0.35900
C510        C  0.91824090  0.70644473  0.24827954    -0.20100
C511        C  0.93960658  0.69079448  0.25225058    -0.25400
C512        C  0.97679127  0.71141862  0.25136814     0.27300
H513        H  0.98474132  0.79304031  0.23800389     0.13000
N514        N  0.91399120  0.76074129  0.24248707    -0.82700
H515        H  0.92730645  0.66214170  0.25482208     0.17900
N516        N  0.99801490  0.69476422  0.25556940    -0.81300
H517        H  0.92195174  0.77876564  0.26936173     0.33500
H518        H  0.91974236  0.77520135  0.21242545     0.38000
H519        H  0.98187907  0.66730362  0.26038107     0.33500
H520        H  0.01122613  0.69817765  0.22498708     0.30200
H521        H  0.04273415  0.79424868  0.13312537     0.33500
H522        H  0.01103863  0.75499133  0.15344445     0.30200
H523        H  0.09634831  0.78452873  0.34293574     0.38000
H524        H  0.12847085  0.82240980  0.31995588     0.33500
C525        C  0.18105415  0.82732611  0.10767938    -0.20200
C526        C  0.21264740  0.84348493  0.08233674     0.36000
C527        C  0.21090705  0.84331963  0.03513543    -0.26200
C528        C  0.17803193  0.82688023  0.01284588     0.02400
C529        C  0.14631079  0.81074138  0.03796790     0.27200
C530        C  0.14813845  0.81122947  0.08539055    -0.25300
N531        N  0.24653834  0.86019479  0.10456814    -0.82700
H532        H  0.23528449  0.85568218  0.01576979     0.13000
C533        C  0.17727797  0.82622078  0.96307108     0.02400
N534        N  0.11252614  0.79362878  0.01512153    -0.81300
H535        H  0.12392825  0.79817637  0.10486522     0.17900
C536        C  0.16858945  0.79450631  0.94060374    -0.26100
C537        C  0.16768744  0.79283935  0.89324727     0.35900
C538        C  0.17610777  0.82372167  0.86819010    -0.20100
C539        C  0.18469892  0.85541995  0.89083716    -0.25400
C540        C  0.18527825  0.85694421  0.93818138     0.27300
H541        H  0.16229832  0.77098856  0.96017706     0.13000
N542        N  0.15751710  0.75981668  0.87058747    -0.82700
H543        H  0.19104952  0.87906096  0.87150250     0.17900
N544        N  0.19378683  0.88940842  0.96117746    -0.81300
H545        H  0.15207992  0.73969930  0.89397504     0.33500
H546        H  0.13377876  0.75213892  0.85319874     0.38000
H547        H  0.19913621  0.90959902  0.93792389     0.33500
H548        H  0.17120026  0.88482739  0.97900297     0.30200
H549        H  0.09177051  0.78276787  0.03848063     0.33500
H550        H  0.11031036  0.81323995  0.99741950     0.30200
H551        H  0.26041103  0.84780067  0.09355555     0.38000
H552        H  0.26068284  0.88685401  0.09449327     0.33500
C553        C  0.56734963  0.28303643  0.59941945    -0.20200
C554        C  0.56280589  0.25749449  0.63238193     0.36000
C555        C  0.53244265  0.24259865  0.65996817    -0.26200
C556        C  0.50666308  0.25270633  0.65547953     0.02400
C557        C  0.51154404  0.27875511  0.62350130     0.27200
C558        C  0.54191508  0.29385932  0.59620041    -0.25300
N559        N  0.58869793  0.24650310  0.63760151    -0.82700
H560        H  0.52863065  0.22274490  0.68492216     0.13000
C561        C  0.47389765  0.23478932  0.68311637     0.02400
N562        N  0.48508551  0.28898446  0.61797247    -0.81300
H563        H  0.54496685  0.31331992  0.57107778     0.17900
C564        C  0.46615652  0.25482847  0.71301256    -0.26100
C565        C  0.43474460  0.23888302  0.73837537     0.35900
C566        C  0.40980949  0.20200965  0.73358031    -0.20100
C567        C  0.41838676  0.18200780  0.70400836    -0.25400
C568        C  0.44997257  0.19800129  0.67882557     0.27300
H569        H  0.48468204  0.28311379  0.71672532     0.13000
N570        N  0.42824748  0.26039176  0.76908727    -0.82700
H571        H  0.40101953  0.15383482  0.69980193     0.17900
N572        N  0.45770991  0.17704570  0.64842232    -0.81300
H573        H  0.44920408  0.27172262  0.79236509     0.33500
H574        H  0.42836329  0.28101581  0.75077256     0.38000
H575        H  0.43770827  0.15027441  0.64943683     0.33500
H576        H  0.45770273  0.18597828  0.61563120     0.30200
H577        H  0.49274778  0.30858646  0.59309791     0.33500
H578        H  0.46184792  0.26672518  0.60624504     0.30200
H579        H  0.61228273  0.26855822  0.64900930     0.38000
H580        H  0.58088404  0.22701114  0.66261202     0.33500
C581        C  0.20776284  0.30182850  0.77869190    -0.20200
C582        C  0.20874567  0.28407786  0.73956866     0.36000
C583        C  0.22394770  0.26232733  0.74151606    -0.26200
C584        C  0.23841732  0.25839387  0.78202634     0.02400
C585        C  0.23594162  0.27486784  0.82173553     0.27200
C586        C  0.22041928  0.29634886  0.81970287    -0.25300
N587        N  0.19446474  0.28826261  0.69789973    -0.82700
H588        H  0.22569681  0.24958697  0.71099418     0.13000
C589        C  0.25927720  0.24011779  0.78155888     0.02400
N590        N  0.25004222  0.27037603  0.86359485    -0.81300
H591        H  0.21944829  0.30998878  0.84979586     0.17900
C592        C  0.29590510  0.26035905  0.78988785    -0.26100
C593        C  0.31712558  0.24469578  0.78885935     0.35900
C594        C  0.30161166  0.20815714  0.77916286    -0.20100
C595        C  0.26483886  0.18762115  0.77161356    -0.25400
C596        C  0.24343759  0.20338409  0.77242029     0.27300
H597        H  0.30811526  0.28857411  0.79707846     0.13000
N598        N  0.35433345  0.26578922  0.79875039    -0.82700
H599        H  0.25296345  0.15941759  0.76463430     0.17900
N600        N  0.20584452  0.18239800  0.76414393    -0.81300
H601        H  0.36566976  0.28677003  0.77562495     0.33500
H602        H  0.35721031  0.27662712  0.83104851     0.38000
H603        H  0.19843602  0.15589147  0.75781252     0.33500
H604        H  0.19288777  0.18246092  0.79374920     0.30200
H605        H  0.24648105  0.28458479  0.88949283     0.33500
H606        H  0.23521556  0.24344864  0.87232710     0.30200
H607        H  0.21473142  0.29827539  0.67386955     0.38000
H608        H  0.17458649  0.26306789  0.68716623     0.33500
C609        C  0.28973671  0.09383596  0.77716923    -0.20200
C610        C  0.27697841  0.07398321  0.81733888     0.36000
C611        C  0.25551831  0.03677107  0.81518971    -0.26200
C612        C  0.24671260  0.01895415  0.77359683     0.02400
C613        C  0.25792968  0.03872872  0.73325259     0.27200
C614        C  0.27903387  0.07603140  0.73543978    -0.25300
N615        N  0.28747951  0.09112967  0.86045258    -0.82700
H616        H  0.24707607  0.02154473  0.84622471     0.13000
C617        C  0.22971632  0.97966586  0.77283784     0.02400
N618        N  0.24902853  0.02074904  0.69036758    -0.81300
H619        H  0.28844257  0.09119407  0.70445877     0.17900
C620        C  0.19389245  0.95847603  0.76017435    -0.26100
C621        C  0.17801066  0.92116338  0.75693961     0.35900
C622        C  0.19876000  0.90526672  0.76544897    -0.20100
C623        C  0.23422578  0.92643699  0.77930890    -0.25400
C624        C  0.24989707  0.96347482  0.78327951     0.27300
H625        H  0.17849195  0.97112355  0.75256692     0.13000
N626        N  0.14119225  0.89946805  0.74466304    -0.82700
H627        H  0.24976033  0.91391871  0.78692125     0.17900
N628        N  0.28634064  0.98483040  0.79746361    -0.81300
H629        H  0.12968438  0.91528663  0.73970038     0.33500
H630        H  0.13999791  0.88745214  0.71364522     0.38000
H631        H  0.29724388  0.96874440  0.80466030     0.33500
H632        H  0.30069872  0.00102337  0.77032330     0.30200
H633        H  0.25910848  0.03916304  0.66396539     0.33500
H634        H  0.26177384  0.00585244  0.68853148     0.30200
H635        H  0.26449196  0.08532438  0.87821564     0.38000
H636        H  0.30050127  0.08021143  0.87822815     0.33500
C637        C  0.78574633  0.58139366  0.74048144    -0.20200
C638        C  0.78489044  0.58386731  0.69274680     0.36000
C639        C  0.76943465  0.55301058  0.66608913    -0.26200
C640        C  0.75497045  0.51928566  0.68566019     0.02400
C641        C  0.75565900  0.51618261  0.73286021     0.27200
C642        C  0.77104614  0.54710642  0.75977702    -0.25300
N643        N  0.80002552  0.61785535  0.67097346    -0.82700
H644        H  0.76902754  0.55542759  0.62968860     0.13000
C645        C  0.73892143  0.48744415  0.65611097     0.02400
N646        N  0.74074076  0.48155658  0.75323129    -0.81300
H647        H  0.77183995  0.54367986  0.79564313     0.17900
C648        C  0.75557887  0.46716434  0.65169817    -0.26100
C649        C  0.74179836  0.43769869  0.62235703     0.35900
C650        C  0.71043327  0.42816998  0.59759317    -0.20100
C651        C  0.69346964  0.44810799  0.60289533    -0.25400
C652        C  0.70763296  0.47789893  0.63150929     0.27300
H653        H  0.77971058  0.47476613  0.67064795     0.13000
N654        N  0.75952569  0.41754908  0.61755817    -0.82700
H655        H  0.66964811  0.44107478  0.58353727     0.17900
N656        N  0.69071122  0.49886901  0.63527016    -0.81300
H657        H  0.78234439  0.42825794  0.63779705     0.33500
H658        H  0.74239684  0.39184606  0.62958525     0.38000
H659        H  0.66825525  0.48864507  0.61439444     0.33500
H660        H  0.68173430  0.49659861  0.66844419     0.30200
H661        H  0.74345305  0.48370238  0.78835275     0.33500
H662        H  0.71345750  0.46778369  0.74635434     0.30200
H663        H  0.78006060  0.61847201  0.65193996     0.38000
H664        H  0.81967350  0.62019038  0.64878433     0.33500
C665        C  0.83787553  0.65028481  0.13456785    -0.20200
C666        C  0.86869237  0.66793160  0.10764059     0.36000
C667        C  0.86534889  0.66746724  0.06053015    -0.26200
C668        C  0.83185883  0.64945197  0.03958661     0.02400
C669        C  0.80109529  0.63082120  0.06619920     0.27200
C670        C  0.80443047  0.63155197  0.11347621    -0.25300
N671        N  0.90366583  0.68505187  0.12695694    -0.82700
H672        H  0.88907196  0.68094672  0.04002257     0.13000
C673        C  0.82960047  0.64882090  0.98963776     0.02400
N674        N  0.76677742  0.61044458  0.04510697    -0.81300
H675        H  0.78079212  0.61774530  0.13408823     0.17900
C676        C  0.83426667  0.62368403  0.96585497    -0.26100
C677        C  0.83268345  0.62224445  0.91841343     0.35900
C678        C  0.82521754  0.64583875  0.89426124    -0.20100
C679        C  0.82229619  0.67211000  0.91823411    -0.25400
C680        C  0.82408127  0.67366248  0.96571869     0.27300
H681        H  0.83958085  0.60538480  0.98446996     0.13000
N682        N  0.83982058  0.59772326  0.89466109    -0.82700
H683        H  0.81844441  0.69142019  0.90010225     0.17900
N684        N  0.82109614  0.70079398  0.98964667    -0.81300
H685        H  0.84511388  0.58252060  0.91732291     0.33500
H686        H  0.86302499  0.61276969  0.87594250     0.38000
H687        H  0.81779374  0.71737734  0.96700670     0.33500
H688        H  0.79800570  0.68832862  0.00905933     0.30200
H689        H  0.74703412  0.59762284  0.06948123     0.33500
H690        H  0.76104269  0.62812515  0.02837525     0.30200
H691        H  0.90602368  0.66661474  0.14719301     0.38000
H692        H  0.90713454  0.70619573  0.14715782     0.33500
C693        C  0.90118039  0.69113508  0.77912337    -0.20200
C694        C  0.91724577  0.72582198  0.76153412     0.36000
C695        C  0.95443962  0.74605328  0.75793456    -0.26200
C696        C  0.97572901  0.73200799  0.77187797     0.02400
C697        C  0.95958489  0.69714596  0.78948458     0.27200
C698        C  0.92239976  0.67704437  0.79298228    -0.25300
N699        N  0.89576600  0.74010359  0.74618137    -0.82700
H700        H  0.96675291  0.77275534  0.74420458     0.13000
C701        C  0.01493200  0.75383903  0.76811521     0.02400
N702        N  0.98105765  0.68225370  0.80324141    -0.81300
H703        H  0.90983356  0.65021093  0.80635952     0.17900
C704        C  0.03546118  0.76486146  0.80761649    -0.26100
C705        C  0.07268163  0.78322443  0.80580719     0.35900
C706        C  0.09003988  0.79115845  0.76358484    -0.20100
C707        C  0.06932390  0.78054494  0.72393318    -0.25400
C708        C  0.03190712  0.76193854  0.72579735     0.27300
H709        H  0.02244244  0.75842586  0.84019374     0.13000
N710        N  0.09252851  0.79222778  0.84712492    -0.82700
H711        H  0.08237683  0.78648839  0.69142452     0.17900
N712        N  0.01106022  0.75070569  0.68502582    -0.81300
H713        H  0.08618000  0.80856566  0.86596158     0.33500
H714        H  0.08442890  0.76880756  0.86541077     0.38000
H715        H  0.02756304  0.75876549  0.65671574     0.33500
H716        H  0.99688350  0.72286868  0.68467571     0.30200
H717        H  0.96510743  0.65642895  0.81561990     0.33500
H718        H  0.99364526  0.68006854  0.77445387     0.30200
H719        H  0.90331641  0.76357359  0.76409871     0.38000
H720        H  0.90126810  0.74661642  0.71204753     0.33500
C721        C  0.79694943  0.69960364  0.77976201    -0.20200
C722        C  0.79653885  0.71575130  0.73870080     0.36000
C723        C  0.78124548  0.73749857  0.73686674    -0.26200
C724        C  0.76607174  0.74302769  0.77548423     0.02400
C725        C  0.76757954  0.72785227  0.81690894     0.27200
C726        C  0.78280736  0.70609460  0.81850152    -0.25300
N727        N  0.81103721  0.70955014  0.69875141    -0.82700
H728        H  0.78003318  0.74901651  0.70491313     0.13000
C729        C  0.74576554  0.76185530  0.77147266     0.02400
N730        N  0.75270374  0.73383998  0.85686663    -0.81300
H731        H  0.78183188  0.69261914  0.84951704     0.17900
C732        C  0.70892904  0.74249562  0.77824847    -0.26100
C733        C  0.68845649  0.75893852  0.77466142     0.35900
C734        C  0.70482265  0.79523573  0.76294161    -0.20100
C735        C  0.74183096  0.81492613  0.75734129    -0.25400
C736        C  0.76255877  0.79854357  0.76168826     0.27300
H737        H  0.69602529  0.71445210  0.78670816     0.13000
N738        N  0.65123539  0.73901677  0.78455207    -0.82700
H739        H  0.75449533  0.84304999  0.74948368     0.17900
N740        N  0.80050892  0.81895768  0.75679016    -0.81300
H741        H  0.63933035  0.71710575  0.76279753     0.33500
H742        H  0.64825806  0.72950285  0.81762832     0.38000
H743        H  0.80870464  0.84558625  0.74991689     0.33500
H744        H  0.81178254  0.81866708  0.78791721     0.30200
H745        H  0.75578629  0.72062936  0.88449891     0.33500
H746        H  0.76740258  0.76105356  0.86420883     0.30200
H747        H  0.79087242  0.69826649  0.67440901     0.38000
H748        H  0.83090804  0.73418304  0.68660215     0.33500
C749        C  0.56341544  0.28507587  0.41381349    -0.20200
C750        C  0.55687636  0.30678831  0.38419649     0.36000
C751        C  0.52514576  0.29153030  0.35871716    -0.26200
C752        C  0.49989426  0.25509592  0.36169637     0.02400
C753        C  0.50689828  0.23321001  0.38993872     0.27200
C754        C  0.53852127  0.24832943  0.41537332    -0.25300
N755        N  0.58211501  0.34420998  0.38024610    -0.82700
H756        H  0.51996850  0.30816189  0.33636938     0.13000
C757        C  0.46604747  0.24028589  0.33547388     0.02400
N758        N  0.48142854  0.19582228  0.39357174    -0.81300
H759        H  0.54311533  0.23128483  0.43767907     0.17900
C760        C  0.45746408  0.21315314  0.30394308    -0.26100
C761        C  0.42587188  0.19859883  0.27859791     0.35900
C762        C  0.40168025  0.21112888  0.28441225    -0.20100
C763        C  0.41053514  0.23838752  0.31649567    -0.25400
C764        C  0.44227144  0.25292484  0.34195962     0.27300
H765        H  0.47561896  0.20332928  0.29863406     0.13000
N766        N  0.41857171  0.17105836  0.24652169    -0.82700
H767        H  0.39311651  0.24875533  0.32248162     0.17900
N768        N  0.45036304  0.28037042  0.37476000    -0.81300
H769        H  0.43942912  0.18097250  0.22334192     0.33500
H770        H  0.41813416  0.14982749  0.26372552     0.38000
H771        H  0.43041403  0.28702325  0.37540732     0.33500
H772        H  0.45054302  0.27002026  0.40657354     0.30200
H773        H  0.49065734  0.18339249  0.41555258     0.33500
H774        H  0.45844286  0.19330484  0.40808523     0.30200
H775        H  0.60515938  0.34678717  0.36582619     0.38000
H776        H  0.57278958  0.35635785  0.35794857     0.33500
C777        C  0.29376784  0.09966197  0.23021663    -0.20200
C778        C  0.26732671  0.07806583  0.26136323     0.36000
C779        C  0.25006355  0.04082033  0.25726667    -0.26200
C780        C  0.25977972  0.02464529  0.22350687     0.02400
C781        C  0.28667499  0.04647262  0.19255268     0.27200
C782        C  0.30317640  0.08369268  0.19617054    -0.25300
N783        N  0.25863719  0.09377428  0.29791488    -0.82700
H784        H  0.22948620  0.02444895  0.28120437     0.13000
C785        C  0.24315378  0.98508687  0.22234438     0.02400
N786        N  0.29807834  0.03083394  0.15860610    -0.81300
H787        H  0.32478320  0.10037312  0.17368000     0.17900
C788        C  0.22894625  0.96659598  0.18166690    -0.26100
C789        C  0.21584122  0.92981333  0.17845150     0.35900
C790        C  0.21511946  0.91049839  0.21711735    -0.20100
C791        C  0.22850733  0.92882931  0.25806563    -0.25400
C792        C  0.24309987  0.96590123  0.26093053     0.27300
H793        H  0.22892651  0.98098361  0.15178244     0.13000
N794        N  0.20504218  0.91267593  0.13534428    -0.82700
H795        H  0.22810584  0.91420990  0.28791596     0.17900
N796        N  0.25872573  0.98422047  0.30257627    -0.81300
H797        H  0.22666368  0.92519373  0.11339919     0.33500
H798        H  0.18475224  0.91649772  0.12278662     0.38000
H799        H  0.25650876  0.96625692  0.32762850     0.33500
H800        H  0.28590401  0.00110568  0.29699576     0.30200
H801        H  0.31787381  0.05053917  0.13843192     0.33500
H802        H  0.30960474  0.01786347  0.17515406     0.30200
H803        H  0.23133274  0.08436679  0.29648337     0.38000
H804        H  0.26379917  0.08470114  0.32811101     0.33500
C805        C  0.34848374  0.18417964  0.12714433    -0.20200
C806        C  0.37193910  0.21517301  0.10262401     0.36000
C807        C  0.37333543  0.21343269  0.05526505    -0.26200
C808        C  0.35170151  0.18150276  0.03210202     0.02400
C809        C  0.32808222  0.15075366  0.05631741     0.27200
C810        C  0.32645479  0.15249698  0.10350257    -0.25300
N811        N  0.39348247  0.24843962  0.12565582    -0.82700
H812        H  0.39103465  0.23710257  0.03622101     0.13000
C813        C  0.35253459  0.18083545  0.98219216     0.02400
N814        N  0.30584239  0.11789388  0.03277202    -0.81300
H815        H  0.30794300  0.12885779  0.12178954     0.17900
C816        C  0.37067402  0.16606515  0.96056693    -0.26100
C817        C  0.37051755  0.16356217  0.91320602     0.35900
C818        C  0.35213792  0.17646583  0.88723075    -0.20100
C819        C  0.33377906  0.19096223  0.90902581    -0.25400
C820        C  0.33374893  0.19321530  0.95634777     0.27300
H821        H  0.38457108  0.15608814  0.98077980     0.13000
N822        N  0.38825413  0.14732001  0.89145568    -0.82700
H823        H  0.31963263  0.20077795  0.88901680     0.17900
N824        N  0.31463149  0.20786173  0.97839606    -0.81300
H825        H  0.40029099  0.13905154  0.91535919     0.33500
H826        H  0.36887940  0.12433424  0.87505743     0.38000
H827        H  0.30235111  0.21593956  0.95457738     0.33500
H828        H  0.29424683  0.18747398  0.99718127     0.30200
H829        H  0.29025504  0.09759750  0.05554790     0.33500
H830        H  0.28828768  0.12155116  0.01239143     0.30200
H831        H  0.37635516  0.25576503  0.14046123     0.38000
H832        H  0.40918712  0.26854141  0.10272689     0.33500
C833        C  0.28518620  0.20565333  0.23283162    -0.20200
C834        C  0.24822617  0.18132931  0.22870260     0.36000
C835        C  0.22419799  0.19408888  0.22770318    -0.26200
C836        C  0.23628389  0.23050831  0.23180110     0.02400
C837        C  0.27302107  0.25486022  0.23538554     0.27200
C838        C  0.29704779  0.24226076  0.23564599    -0.25300
N839        N  0.23502019  0.14372129  0.22762623    -0.82700
H840        H  0.19588087  0.17553359  0.22520178     0.13000
C841        C  0.21068512  0.24345463  0.23423879     0.02400
N842        N  0.28568259  0.29235868  0.23917352    -0.81300
H843        H  0.32526652  0.26123396  0.23786880     0.17900
C844        C  0.20591531  0.25587436  0.27572169    -0.26100
C845        C  0.18819332  0.27529459  0.27823565     0.35900
C846        C  0.17634003  0.28372176  0.23807391    -0.20100
C847        C  0.17734866  0.26751245  0.19745063    -0.25400
C848        C  0.19451927  0.24745779  0.19513072     0.27300
H849        H  0.21736647  0.25161450  0.30596475     0.13000
N850        N  0.18295228  0.28721488  0.32123514    -0.82700
H851        H  0.16700511  0.27239531  0.16674431     0.17900
N852        N  0.19698125  0.23254338  0.15295515    -0.81300
H853        H  0.19326665  0.27882680  0.34731870     0.33500
H854        H  0.15555726  0.27490199  0.32654251     0.38000
H855        H  0.18334220  0.23756334  0.12752948     0.33500
H856        H  0.22371900  0.24564930  0.14356306     0.30200
H857        H  0.31338812  0.30677914  0.24197497     0.33500
H858        H  0.27922423  0.30051603  0.20915222     0.30200
H859        H  0.24070995  0.13694370  0.25908070     0.38000
H860        H  0.20734764  0.12954821  0.22420020     0.33500
C861        C  0.22066502  0.80046651  0.25809236    -0.20200
C862        C  0.22421990  0.80558681  0.30552847     0.36000
C863        C  0.24060934  0.79078682  0.33128507    -0.26200
C864        C  0.25327355  0.77038244  0.31098147     0.02400
C865        C  0.25003041  0.76492015  0.26407871     0.27200
C866        C  0.23390525  0.78000265  0.23804803    -0.25300
N867        N  0.21074176  0.82553960  0.32787606    -0.82700
H868        H  0.24287833  0.79471103  0.36754684     0.13000
C869        C  0.26836745  0.75344438  0.33967412     0.02400
N870        N  0.26265572  0.74353809  0.24323866    -0.81300
H871        H  0.23152970  0.77480000  0.20236711     0.17900
C872        C  0.24674389  0.71773142  0.35185442    -0.26100
C873        C  0.25942050  0.70089157  0.38067332     0.35900
C874        C  0.29439544  0.72054651  0.39831827    -0.20100
C875        C  0.31635136  0.75613891  0.38472156    -0.25400
C876        C  0.30365564  0.77272706  0.35537955     0.27300
H877        H  0.21975473  0.70305388  0.33899785     0.13000
N878        N  0.23687993  0.66394978  0.39196501    -0.82700
H879        H  0.34319358  0.77136244  0.39788438     0.17900
N880        N  0.32616199  0.80917295  0.34194364    -0.81300
H881        H  0.21195911  0.65363035  0.37656530     0.33500
H882        H  0.24845800  0.64999490  0.37846107     0.38000
H883        H  0.35136270  0.81969743  0.35660573     0.33500
H884        H  0.32973601  0.80942175  0.30703434     0.30200
H885        H  0.25792957  0.74158948  0.20843847     0.33500
H886        H  0.29023758  0.75671417  0.24755667     0.30200
H887        H  0.23180592  0.84676096  0.34498352     0.38000
H888        H  0.19207745  0.80901590  0.35176038     0.33500
C889        C  0.43198905  0.70828545  0.40111961    -0.20200
C890        C  0.43803803  0.73506532  0.36952232     0.36000
C891        C  0.46762174  0.74821560  0.34071356    -0.26200
C892        C  0.49141019  0.73543363  0.34344976     0.02400
C893        C  0.48491739  0.70813236  0.37431390     0.27200
C894        C  0.45502363  0.69455177  0.40255768    -0.25300
N895        N  0.41419592  0.74881064  0.36697143    -0.82700
H896        H  0.47262117  0.76902022  0.31666549     0.13000
C897        C  0.52347770  0.75140549  0.31447789     0.02400
N898        N  0.50904144  0.69475066  0.37722973    -0.81300
H899        H  0.45036046  0.67405212  0.42693950     0.17900
C900        C  0.55711972  0.77117029  0.33440844    -0.26100
C901        C  0.58805736  0.78675307  0.30810356     0.35900
C902        C  0.58574887  0.78315587  0.26043013    -0.20100
C903        C  0.55157957  0.76269704  0.24089371    -0.25400
C904        C  0.52065582  0.74675255  0.26739479     0.27300
H905        H  0.55938995  0.77453729  0.37075117     0.13000
N906        N  0.62194546  0.80619223  0.33011739    -0.82700
H907        H  0.54810453  0.75794002  0.20516624     0.17900
N908        N  0.48631327  0.72532871  0.24673976    -0.81300
H909        H  0.62436909  0.78905464  0.35274497     0.33500
H910        H  0.62242370  0.82686388  0.34867948     0.38000
H911        H  0.48860882  0.72453286  0.21168590     0.33500
H912        H  0.47603824  0.69923131  0.25824954     0.30200
H913        H  0.50072035  0.67497990  0.40194025     0.33500
H914        H  0.50804046  0.68258487  0.34639563     0.30200
H915        H  0.38931533  0.72794452  0.35690123     0.38000
H916        H  0.42239318  0.76837904  0.34199347     0.33500
C917        C  0.28760393  0.72014522  0.58241790    -0.20200
C918        C  0.28280770  0.74800600  0.56619416     0.36000
C919        C  0.26790459  0.76290283  0.59451533    -0.26200
C920        C  0.25768485  0.75073834  0.63886690     0.02400
C921        C  0.26267647  0.72297423  0.65523905     0.27200
C922        C  0.27706585  0.70757063  0.62655629    -0.25300
N923        N  0.29215620  0.76039405  0.52050540    -0.82700
H924        H  0.26352431  0.78370709  0.58158617     0.13000
C925        C  0.24072523  0.76671831  0.66674686     0.02400
N926        N  0.25355277  0.71087419  0.70102004    -0.81300
H927        H  0.28073544  0.68617146  0.63891538     0.17900
C928        C  0.20721927  0.74468633  0.68583922    -0.26100
C929        C  0.18955687  0.75885239  0.71042680     0.35900
C930        C  0.20465723  0.79639991  0.71385181    -0.20100
C931        C  0.23911899  0.81818653  0.69616917    -0.25400
C932        C  0.25718190  0.80383833  0.67299742     0.27300
H933        H  0.19468808  0.71612053  0.68149933     0.13000
N934        N  0.15634590  0.73500296  0.73193801    -0.82700
H935        H  0.25315191  0.84655126  0.70167903     0.17900
N936        N  0.29254176  0.82686736  0.65635004    -0.81300
H937        H  0.14848721  0.70846618  0.72488419     0.33500
H938        H  0.16036615  0.73814780  0.76680723     0.38000
H939        H  0.30091477  0.85352575  0.66332025     0.33500
H940        H  0.30965883  0.82081386  0.67401021     0.30200
H941        H  0.25884842  0.69038828  0.70775861     0.33500
H942        H  0.27018345  0.73208274  0.72221807     0.30200
H943        H  0.27538495  0.73944989  0.49905187     0.38000
H944        H  0.28725864  0.78117497  0.51396843     0.33500
C945        C  0.43377107  0.71641755  0.58928195    -0.20200
C946        C  0.43933763  0.74235982  0.62212267     0.36000
C947        C  0.47053360  0.75751125  0.64866971    -0.26200
C948        C  0.49571846  0.74667772  0.64376214     0.02400
C949        C  0.48932740  0.71954518  0.61285310     0.27200
C950        C  0.45841764  0.70458108  0.58619761    -0.25300
N951        N  0.41355650  0.75333824  0.62833521    -0.82700
H952        H  0.47550563  0.77815128  0.67295645     0.13000
C953        C  0.52985657  0.76548643  0.66886258     0.02400
N954        N  0.51484303  0.70808051  0.60770149    -0.81300
H955        H  0.45437953  0.68448978  0.56153443     0.17900
C956        C  0.53700101  0.74796070  0.70336471    -0.26100
C957        C  0.56981850  0.76465964  0.72617783     0.35900
C958        C  0.59618675  0.80010736  0.71519206    -0.20100
C959        C  0.58881763  0.81706399  0.67956185    -0.25400
C960        C  0.55618008  0.80003581  0.65624214     0.27300
H961        H  0.51710130  0.72096671  0.71231348     0.13000
N962        N  0.57640584  0.74526364  0.76029036    -0.82700
H963        H  0.60843650  0.84320333  0.66827844     0.17900
N964        N  0.54986627  0.81740456  0.61898446    -0.81300
H965        H  0.57385368  0.72225528  0.74552273     0.33500
H966        H  0.55683973  0.73748734  0.78504833     0.38000
H967        H  0.57176246  0.84285342  0.61390728     0.33500
H968        H  0.54732994  0.80275452  0.58983943     0.30200
H969        H  0.50604712  0.68765800  0.58377796     0.33500
H970        H  0.53814412  0.72953703  0.59487490     0.30200
H971        H  0.42186816  0.77274724  0.65357871     0.38000
H972        H  0.39020817  0.73126068  0.63999762     0.33500
C973        C  0.28012521  0.56838810  0.40628728    -0.20200
C974        C  0.24279957  0.54590674  0.40479014     0.36000
C975        C  0.22802587  0.51398949  0.38001161    -0.26200
C976        C  0.24959918  0.50473266  0.35547629     0.02400
C977        C  0.28665099  0.52810547  0.35461019     0.27200
C978        C  0.30163742  0.55934468  0.38090201    -0.25300
N979        N  0.22008768  0.55478375  0.42973930    -0.82700
H980        H  0.19948170  0.49621292  0.37961528     0.13000
C981        C  0.23253396  0.47125957  0.32904863     0.02400
N982        N  0.30868904  0.52061133  0.32601985    -0.81300
H983        H  0.33022680  0.57682333  0.38149637     0.17900
C984        C  0.21619726  0.47046327  0.28803874    -0.26100
C985        C  0.19788438  0.43896363  0.26286472     0.35900
C986        C  0.19732710  0.40759873  0.27747420    -0.20100
C987        C  0.21252816  0.40834211  0.31998943    -0.25400
C988        C  0.22987841  0.43972577  0.34595509     0.27300
H989        H  0.21691314  0.49436303  0.27598281     0.13000
N990        N  0.17918765  0.43891061  0.22292889    -0.82700
H991        H  0.20977754  0.38426683  0.33436980     0.17900
N992        N  0.24316215  0.43923018  0.39034433    -0.81300
H993        H  0.19746392  0.45826079  0.20093575     0.33500
H994        H  0.16058872  0.44624404  0.23195726     0.38000
H995        H  0.23794009  0.41362870  0.39847598     0.33500
H996        H  0.27077122  0.45547282  0.38999719     0.30200
H997        H  0.33521668  0.54106067  0.32824731     0.33500
H998        H  0.30786704  0.49760792  0.33790425     0.30200
H999        H  0.22137247  0.57702322  0.41424515     0.38000
H1000       H  0.19358965  0.53437600  0.42718802     0.33500
C1001       C  0.28724884  0.57196285  0.59070558    -0.20200
C1002       C  0.25515525  0.53986832  0.58178990     0.36000
C1003       C  0.24269281  0.51187559  0.61309294    -0.26200
C1004       C  0.26116806  0.51526814  0.65336696     0.02400
C1005       C  0.29289788  0.54739880  0.66268612     0.27200
C1006       C  0.30588682  0.57527939  0.63094576    -0.25300
N1007       N  0.23617241  0.53507002  0.54009899    -0.82700
H1008       H  0.21850880  0.48700821  0.60588063     0.13000
C1009       C  0.24693855  0.48438585  0.68465116     0.02400
N1010       N  0.31159469  0.55161162  0.70440972    -0.81300
H1011       H  0.33046904  0.59984452  0.63780568     0.17900
C1012       C  0.26742147  0.46879465  0.69531648    -0.26100
C1013       C  0.25350555  0.43767716  0.72170997     0.35900
C1014       C  0.21711602  0.41989351  0.73439456    -0.20100
C1015       C  0.19812946  0.43792171  0.72739397    -0.25400
C1016       C  0.21258102  0.46977571  0.70272666     0.27300
H1017       H  0.29445447  0.48103206  0.68303000     0.13000
N1018       N  0.27662975  0.42508117  0.73668998    -0.82700
H1019       H  0.17179936  0.42728241  0.74140420     0.17900
N1020       N  0.19256777  0.48748121  0.69598731    -0.81300
H1021       H  0.30239260  0.44128245  0.72446634     0.33500
H1022       H  0.27831652  0.42726121  0.77188499     0.38000
H1023       H  0.16775344  0.47339847  0.71158841     0.33500
H1024       H  0.20630450  0.51219486  0.71217180     0.30200
H1025       H  0.33437945  0.57683252  0.70614238     0.33500
H1026       H  0.29502235  0.55035037  0.73065806     0.30200
H1027       H  0.22447291  0.55092851  0.54159144     0.38000
H1028       H  0.21517227  0.50884314  0.53703926     0.33500
loop_ 
_geom_bond_atom_site_label_1 
_geom_bond_atom_site_label_2 
_geom_bond_distance 
_geom_bond_site_symmetry_2 
_ccdc_geom_bond_type 
O1           C16   1.261       .  A
O1           Al9   1.901       .  S
C2           O12   1.263       .  A
C2            O3   1.262       .  A
C2          C945   1.490       .  S
O3           Al5   1.904       .  S
O4            C6   1.260       .  A
O4           Al5   1.902       .  S
Al5          O13   1.897       .  S
Al5          O15   1.914       .  S
Al5          O14   1.788       .  S
C6           O19   1.261       .  A
C6         C1001   1.482       .  S
O7           C17   1.261       .  A
O7           Al9   1.910       .  S
O8           C21   1.261       .  A
O8          Al18   1.898       .  S
Al9          O22   1.914       .  S
Al9          O19   1.911       .  S
Al9          O14   1.787       .  S
O10          C17   1.263       .  A
O10         Al18   1.920       .  S
O11          C20   1.263       .  A
O11         Al18   1.918       .  S
O12         Al18   1.911       .  S
O13          C20   1.260       .  A
O14         Al18   1.789       .  S
O15          C16   1.262       .  A
C16         C973   1.482       .  S
C17         C917   1.483       .  S
C20         C889   1.478       .  S
C21          O22   1.263       .  A
C21         C874   1.486       .  S
C23          C24   1.538       .  S
C23          C29   1.550       .  S
C23          C27   1.540       .  S
C23         C762   1.544       .  S
C24          H31   1.086       .  S
C24          C25   1.362       .  D
C25          C26   1.539       .  S
C25         C777   1.480       .  S
C26          C30   1.543       .  S
C26          C28   1.538       .  S
C26          H32   1.109       .  S
C27          H33   1.086       .  S
C27          C28   1.366       .  D
C28         C805   1.491       .  S
C29          H34   1.081       .  S
C29          C30   1.374       .  D
C30         C833   1.499       .  S
C35          C36   1.534       .  S
C35          C41   1.537       .  S
C35          C39   1.550       .  S
C35         C637   1.538       .  S
C36          H43   1.087       .  S
C36          C37   1.362       .  D
C37          C38   1.537       .  S
C37         C693   1.477       .  S
C38          C42   1.540       .  S
C38          C40   1.540       .  S
C38          H44   1.111       .  S
C39          H45   1.081       .  S
C39          C40   1.371       .  D
C40         C678   1.495       .  S
C41          H46   1.086       .  S
C41          C42   1.363       .  D
C42         C721   1.480       .  S
C47          C48   1.538       .  S
C47          C53   1.546       .  S
C47          C51   1.539       .  S
C47         C566   1.539       .  S
C48          H55   1.086       .  S
C48          C49   1.364       .  D
C49          C50   1.533       .  S
C49         C594   1.478       .  S
C50          C54   1.538       .  S
C50          C52   1.537       .  S
C50          H56   1.110       .  S
C51          H57   1.086       .  S
C51          C52   1.366       .  D
C52         C818   1.483       .  S
C53          H58   1.080       .  S
C53          C54   1.368       .  D
C54         C609   1.489       .  S
C59          C60   1.547       .  S
C59          C65   1.545       .  S
C59          C63   1.537       .  S
C59         C930   1.544       .  S
C60          H67   1.083       .  S
C60          C61   1.365       .  D
C61          C62   1.531       .  S
C61         C622   1.480       .  S
C62          C66   1.540       .  S
C62          C64   1.532       .  S
C62          H68   1.110       .  S
C63          H69   1.086       .  S
C63          C64   1.364       .  D
C64         C538   1.479       .  S
C65          H70   1.085       .  S
C65          C66   1.370       .  D
C66         C706   1.493       .  S
C71          C72   1.535       .  S
C71          C77   1.538       .  S
C71          C75   1.542       .  S
C71         C861   1.535       .  S
C72          H79   1.085       .  S
C72          C73   1.368       .  D
C73          C74   1.545       .  S
C73         C497   1.498       .  S
C74          C78   1.541       .  S
C74          C76   1.538       .  S
C74          H80   1.108       .  S
C75          H81   1.081       .  S
C75          C76   1.363       .  D
C76         C525   1.477       .  S
C77          H82   1.086       .  S
C77          C78   1.367       .  D
C78         C790   1.491       .  S
C83          C84   1.534       .  S
C83          C89   1.541       .  S
C83          C87   1.543       .  S
C83         C454   1.538       .  S
C84          H91   1.086       .  S
C84          C85   1.368       .  D
C85          C86   1.542       .  S
C85         C469   1.491       .  S
C86          C90   1.542       .  S
C86          C88   1.536       .  S
C86          H92   1.107       .  S
C87          H93   1.086       .  S
C87          C88   1.365       .  D
C88         C665   1.484       .  S
C89          H94   1.081       .  S
C89          C90   1.366       .  D
C90         C510   1.492       .  S
C95          C96   1.535       .  S
C95         C101   1.533       .  S
C95          C99   1.545       .  S
C95         C902   1.540       .  S
C96         H103   1.086       .  S
C96          C97   1.369       .  D
C97          C98   1.544       .  S
C97         C385   1.494       .  S
C98         C102   1.543       .  S
C98         C100   1.537       .  S
C98         H104   1.110       .  S
C99         H105   1.079       .  S
C99         C100   1.365       .  D
C100        C426   1.485       .  S
C101        H106   1.085       .  S
C101        C102   1.367       .  D
C102        C482   1.491       .  S
C107        C108   1.543       .  S
C107        C113   1.542       .  S
C107        C111   1.536       .  S
C107       C1014   1.538       .  S
C108        H115   1.084       .  S
C108        C109   1.374       .  D
C109        C110   1.542       .  S
C109        C357   1.504       .  S
C110        C114   1.533       .  S
C110        C112   1.529       .  S
C110        H116   1.105       .  S
C111        H117   1.086       .  S
C111        C112   1.362       .  D
C112        C342   1.478       .  S
C113        H118   1.083       .  S
C113        C114   1.365       .  D
C114        C581   1.474       .  S
C119        C120   1.542       .  S
C119        C125   1.539       .  S
C119        C123   1.535       .  S
C119        C245   1.538       .  S
C120        H127   1.085       .  S
C120        C121   1.363       .  D
C121        C122   1.536       .  S
C121        C301   1.486       .  S
C122        C126   1.539       .  S
C122        C124   1.541       .  S
C122        H128   1.108       .  S
C123        H129   1.086       .  S
C123        C124   1.371       .  D
C124        C273   1.493       .  S
C125        H130   1.084       .  S
C125        C126   1.365       .  D
C126        C370   1.480       .  S
C131        C132   1.536       .  S
C131        C137   1.545       .  S
C131        C135   1.541       .  S
C131        C958   1.540       .  S
C132        H139   1.086       .  S
C132        C133   1.365       .  D
C133        C134   1.535       .  S
C133        C734   1.483       .  S
C134        C138   1.541       .  S
C134        C136   1.541       .  S
C134        H140   1.107       .  S
C135        H141   1.086       .  S
C135        C136   1.372       .  D
C136        C413   1.498       .  S
C137        H142   1.081       .  S
C137        C138   1.363       .  D
C138        C314   1.482       .  S
C143        C144   1.539       .  S
C143        C149   1.540       .  S
C143        C147   1.545       .  S
C143        C189   1.543       .  S
C144        H151   1.086       .  S
C144        C145   1.370       .  D
C145        C146   1.541       .  S
C145        C230   1.499       .  S
C146        C150   1.539       .  S
C146        C148   1.533       .  S
C146        H152   1.107       .  S
C147        H153   1.081       .  S
C147        C148   1.363       .  D
C148        C286   1.480       .  S
C149        H154   1.086       .  S
C149        C150   1.369       .  D
C150        C398   1.492       .  S
C155        C156   1.544       .  S
C155        C161   1.535       .  S
C155        C159   1.538       .  S
C155        C986   1.536       .  S
C156        H163   1.083       .  S
C156        C157   1.372       .  D
C157        C158   1.541       .  S
C157        C846   1.495       .  S
C158        C162   1.542       .  S
C158        C160   1.534       .  S
C158        H164   1.110       .  S
C159        H165   1.086       .  S
C159        C160   1.360       .  D
C160        C329   1.472       .  S
C161        H166   1.086       .  S
C161        C162   1.366       .  D
C162        C217   1.489       .  S
O167        C182   1.262       .  A
O167       Al175   1.903       .  S
C168        O178   1.258       .  A
C168        O169   1.262       .  A
C168        C258   1.474       .  S
O169       Al171   1.918       .  S
O170        C172   1.262       .  A
O170       Al171   1.901       .  S
Al171       O179   1.890       .  S
Al171       O181   1.921       .  S
Al171       O180   1.783       .  S
C172        O185   1.264       .  A
C172        C553   1.488       .  S
O173        C183   1.261       .  A
O173       Al175   1.892       .  S
O174        C187   1.259       .  A
O174       Al184   1.894       .  S
Al175       O188   1.905       .  S
Al175       O185   1.911       .  S
Al175       O180   1.782       .  S
O176        C183   1.263       .  A
O176       Al184   1.914       .  S
O177        C186   1.265       .  A
O177       Al184   1.919       .  S
O178       Al184   1.895       .  S
O179        C186   1.261       .  A
O180       Al184   1.783       .  S
O181        C182   1.265       .  A
C182        C749   1.495       .  S
C183        C650   1.478       .  S
C186        C202   1.480       .  S
C187        O188   1.262       .  A
C187        C441   1.485       .  S
C189        C190   1.423       .  A
C189        C194   1.416       .  A
C190        C191   1.408       .  A
C190        N195   1.439       .  S
C191        C192   1.399       .  A
C191        H196   1.084       .  S
C192        C197   1.481       .  S
C192        C193   1.403       .  A
C193        C194   1.405       .  A
C193        N198   1.439       .  S
C194        H199   1.075       .  S
N195        H215   1.044       .  S
N195        H216   1.046       .  S
C197        C200   1.402       .  A
C197        C204   1.407       .  A
N198        H213   1.046       .  S
N198        H214   1.046       .  S
C200        C201   1.405       .  A
C200        H205   1.084       .  S
C201        C202   1.413       .  A
C201        N206   1.438       .  S
C202        C203   1.406       .  A
C203        C204   1.405       .  A
C203        H207   1.084       .  S
C204        N208   1.437       .  S
N206        H209   1.045       .  S
N206        H210   1.046       .  S
N208        H211   1.046       .  S
N208        H212   1.046       .  S
C217        C218   1.417       .  A
C217        C222   1.405       .  A
C218        C219   1.406       .  A
C218        N223   1.438       .  S
C219        C220   1.401       .  A
C219        H224   1.084       .  S
C220        C225   1.480   1_455  S
C220        C221   1.406       .  A
C221        C222   1.406       .  A
C221        N226   1.437       .  S
C222        H227   1.083       .  S
N223        H243   1.043       .  S
N223        H244   1.046       .  S
C225        C228   1.398       .  A
C225        C232   1.406       .  A
N226        H241   1.045       .  S
N226        H242   1.046   1_455  S
C228        C229   1.407       .  A
C228        H233   1.084       .  S
C229        C230   1.420       .  A
C229        N234   1.436       .  S
C230        C231   1.409       .  A
C231        C232   1.406       .  A
C231        H235   1.083       .  S
C232        N236   1.437       .  S
N234        H237   1.046       .  S
N234        H238   1.044       .  S
N236        H239   1.045       .  S
N236        H240   1.045       .  S
C245        C246   1.422       .  A
C245        C250   1.411       .  A
C246        C247   1.409       .  A
C246        N251   1.437       .  S
C247        C248   1.401       .  A
C247        H252   1.084       .  S
C248        C253   1.484       .  S
C248        C249   1.405       .  A
C249        C250   1.402       .  A
C249        N254   1.438       .  S
C250        H255   1.081       .  S
N251        H271   1.046       .  S
N251        H272   1.045       .  S
C253        C256   1.403       .  A
C253        C260   1.411       .  A
N254        H269   1.046       .  S
N254        H270   1.045       .  S
C256        C257   1.403       .  A
C256        H261   1.084       .  S
C257        C258   1.411       .  A
C257        N262   1.439       .  S
C258        C259   1.403       .  A
C259        C260   1.408       .  A
C259        H263   1.084       .  S
C260        N264   1.437       .  S
N262        H265   1.045       .  S
N262        H266   1.046       .  S
N264        H267   1.045       .  S
N264        H268   1.046       .  S
C273        C274   1.418       .  A
C273        C278   1.409       .  A
C274        C275   1.403       .  A
C274        N279   1.435       .  S
C275        C276   1.397       .  A
C275        H280   1.084       .  S
C276        C281   1.472   1_556  S
C276        C277   1.404       .  A
C277        C278   1.403       .  A
C277        N282   1.438       .  S
C278        H283   1.083       .  S
N279        H299   1.034       .  S
N279        H300   1.053       .  S
C281        C284   1.399       .  A
C281        C288   1.407       .  A
N282        H297   1.046       .  S
N282        H298   1.046       .  S
C284        C285   1.401       .  A
C284        H289   1.084       .  S
C285        C286   1.414       .  A
C285        N290   1.439       .  S
C286        C287   1.403       .  A
C287        C288   1.403       .  A
C287        H291   1.084       .  S
C288        N292   1.437       .  S
N290        H293   1.045       .  S
N290        H294   1.046       .  S
N292        H295   1.046       .  S
N292        H296   1.045       .  S
C301        C302   1.412       .  A
C301        C306   1.404       .  A
C302        C303   1.401       .  A
C302        N307   1.439       .  S
C303        C304   1.403       .  A
C303        H308   1.084       .  S
C304        C309   1.490   1_545  S
C304        C305   1.413       .  A
C305        C306   1.412       .  A
C305        N310   1.437       .  S
C306        H311   1.084       .  S
N307        H327   1.046       .  S
N307        H328   1.045       .  S
C309        C312   1.407       .  A
C309        C316   1.412       .  A
N310        H325   1.046       .  S
N310        H326   1.045       .  S
C312        C313   1.412       .  A
C312        H317   1.083       .  S
C313        C314   1.410       .  A
C313        N318   1.437       .  S
C314        C315   1.398       .  A
C315        C316   1.402       .  A
C315        H319   1.081       .  S
C316        N320   1.438       .  S
N318        H321   1.046       .  S
N318        H322   1.045       .  S
N320        H323   1.046       .  S
N320        H324   1.046       .  S
C329        C330   1.407       .  A
C329        C334   1.400       .  A
C330        C331   1.401       .  A
C330        N335   1.436       .  S
C331        C332   1.402       .  A
C331        H336   1.084       .  S
C332        C337   1.477   1_554  S
C332        C333   1.410       .  A
C333        C334   1.405       .  A
C333        N338   1.437       .  S
C334        H339   1.083       .  S
N335        H355   1.045       .  S
N335        H356   1.046       .  S
C337        C340   1.403       .  A
C337        C344   1.408       .  A
N338        H353   1.046       .  S
N338        H354   1.046       .  S
C340        C341   1.406       .  A
C340        H345   1.084       .  S
C341        C342   1.411       .  A
C341        N346   1.438       .  S
C342        C343   1.402       .  A
C343        C344   1.400       .  A
C343        H347   1.084       .  S
C344        N348   1.438       .  S
N346        H349   1.045       .  S
N346        H350   1.046       .  S
N348        H351   1.045       .  S
N348        H352   1.046       .  S
C357        C358   1.418       .  A
C357        C362   1.408       .  A
C358        C359   1.408       .  A
C358        N363   1.431       .  S
C359        C360   1.404       .  A
C359        H364   1.083       .  S
C360        C365   1.492   1_455  S
C360        C361   1.411       .  A
C361        C362   1.401       .  A
C361        N366   1.439       .  S
C362        H367   1.081       .  S
N363        H383   1.046       .  S
N363        H384   1.046       .  S
C365        C368   1.403       .  A
C365        C372   1.414       .  A
N366        H381   1.046       .  S
N366        H382   1.045       .  S
C368        C369   1.397       .  A
C368        H373   1.084       .  S
C369        C370   1.419       .  A
C369        N374   1.441       .  S
C370        C371   1.402       .  A
C371        C372   1.410       .  A
C371        H375   1.084       .  S
C372        N376   1.437       .  S
N374        H377   1.048       .  S
N374        H378   1.039       .  S
N376        H379   1.045       .  S
N376        H380   1.046       .  S
C385        C386   1.415       .  A
C385        C390   1.407       .  A
C386        C387   1.405       .  A
C386        N391   1.438       .  S
C387        C388   1.399       .  A
C387        H392   1.084       .  S
C388        C393   1.484   1_565  S
C388        C389   1.410       .  A
C389        C390   1.411       .  A
C389        N394   1.437       .  S
C390        H395   1.083       .  S
N391        H411   1.045       .  S
N391        H412   1.046       .  S
C393        C396   1.402       .  A
C393        C400   1.409       .  A
N394        H409   1.045       .  S
N394        H410   1.046       .  S
C396        C397   1.411       .  A
C396        H401   1.083       .  S
C397        C398   1.415       .  A
C397        N402   1.437       .  S
C398        C399   1.406       .  A
C399        C400   1.405       .  A
C399        H403   1.083       .  S
C400        N404   1.438   1_545  S
N402        H405   1.045       .  S
N402        H406   1.046       .  S
N404        H407   1.045   1_565  S
N404        H408   1.046       .  S
C413        C414   1.417       .  A
C413        C418   1.410       .  A
C414        C415   1.402       .  A
C414        N419   1.429       .  S
C415        C416   1.397       .  A
C415        H420   1.084       .  S
C416        C421   1.476   1_556  S
C416        C417   1.405       .  A
C417        C418   1.404       .  A
C417        N422   1.438       .  S
C418        H423   1.083       .  S
N419        H439   1.046       .  S
N419        H440   1.046       .  S
C421        C424   1.399       .  A
C421        C428   1.408       .  A
N422        H437   1.046       .  S
N422        H438   1.045       .  S
C424        C425   1.402       .  A
C424        H429   1.084       .  S
C425        C426   1.415       .  A
C425        N430   1.438       .  S
C426        C427   1.404       .  A
C427        C428   1.406       .  A
C427        H431   1.084       .  S
C428        N432   1.437       .  S
N430        H433   1.046       .  S
N430        H434   1.046       .  S
N432        H435   1.046       .  S
N432        H436   1.046   1_554  S
C441        C442   1.413       .  A
C441        C446   1.408       .  A
C442        C443   1.402       .  A
C442        N447   1.433       .  S
C443        C444   1.403       .  A
C443        H448   1.084       .  S
C444        C449   1.483       .  S
C444        C445   1.409       .  A
C445        C446   1.403       .  A
C445        N450   1.438       .  S
C446        H451   1.083       .  S
N447        H467   1.046       .  S
N447        H468   1.045       .  S
C449        C452   1.400       .  A
C449        C456   1.407       .  A
N450        H465   1.046       .  S
N450        H466   1.045       .  S
C452        C453   1.403       .  A
C452        H457   1.084       .  S
C453        C454   1.419       .  A
C453        N458   1.433       .  S
C454        C455   1.413       .  A
C455        C456   1.404       .  A
C455        H459   1.076       .  S
C456        N460   1.439       .  S
N458        H461   1.046       .  S
N458        H462   1.045       .  S
N460        H463   1.045       .  S
N460        H464   1.046       .  S
C469        C470   1.414       .  A
C469        C474   1.406       .  A
C470        C471   1.405       .  A
C470        N475   1.431       .  S
C471        C472   1.400       .  A
C471        H476   1.084       .  S
C472        C477   1.478       .  S
C472        C473   1.407       .  A
C473        C474   1.406       .  A
C473        N478   1.438       .  S
C474        H479   1.083       .  S
N475        H495   1.045       .  S
N475        H496   1.046       .  S
C477        C480   1.398       .  A
C477        C484   1.408       .  A
N478        H493   1.046       .  S
N478        H494   1.045       .  S
C480        C481   1.400       .  A
C480        H485   1.084       .  S
C481        C482   1.415       .  A
C481        N486   1.433       .  S
C482        C483   1.406       .  A
C483        C484   1.410       .  A
C483        H487   1.083       .  S
C484        N488   1.437       .  S
N486        H489   1.046       .  S
N486        H490   1.045       .  S
N488        H491   1.045       .  S
N488        H492   1.046       .  S
C497        C498   1.418       .  A
C497        C502   1.406       .  A
C498        C499   1.407       .  A
C498        N503   1.438       .  S
C499        C500   1.401       .  A
C499        H504   1.084       .  S
C500        C505   1.483   1_455  S
C500        C501   1.408       .  A
C501        C502   1.406       .  A
C501        N506   1.438       .  S
C502        H507   1.079       .  S
N503        H523   1.046       .  S
N503        H524   1.045       .  S
C505        C508   1.404       .  A
C505        C512   1.408       .  A
N506        H521   1.046       .  S
N506        H522   1.046       .  S
C508        C509   1.408       .  A
C508        H513   1.084       .  S
C509        C510   1.409       .  A
C509        N514   1.431       .  S
C510        C511   1.408       .  A
C511        C512   1.402       .  A
C511        H515   1.083       .  S
C512        N516   1.438       .  S
N514        H517   1.046       .  S
N514        H518   1.045       .  S
N516        H519   1.046       .  S
N516        H520   1.045   1_655  S
C525        C526   1.409       .  A
C525        C530   1.401       .  A
C526        C527   1.400       .  A
C526        N531   1.433       .  S
C527        C528   1.400       .  A
C527        H532   1.084       .  S
C528        C533   1.475   1_554  S
C528        C529   1.409       .  A
C529        C530   1.406       .  A
C529        N534   1.437       .  S
C530        H535   1.081       .  S
N531        H551   1.045       .  S
N531        H552   1.046       .  S
C533        C536   1.401       .  A
C533        C540   1.407       .  A
N534        H549   1.046       .  S
N534        H550   1.045   1_554  S
C536        C537   1.404       .  A
C536        H541   1.084       .  S
C537        C538   1.411       .  A
C537        N542   1.438       .  S
C538        C539   1.404       .  A
C539        C540   1.404       .  A
C539        H543   1.084       .  S
C540        N544   1.438       .  S
N542        H545   1.045       .  S
N542        H546   1.046       .  S
N544        H547   1.046       .  S
N544        H548   1.046       .  S
C553        C554   1.415       .  A
C553        C558   1.408       .  A
C554        C555   1.408       .  A
C554        N559   1.438       .  S
C555        C556   1.403       .  A
C555        H560   1.084       .  S
C556        C561   1.484       .  S
C556        C557   1.408       .  A
C557        C558   1.403       .  A
C557        N562   1.438       .  S
C558        H563   1.083       .  S
N559        H579   1.046       .  S
N559        H580   1.045       .  S
C561        C564   1.399       .  A
C561        C568   1.407       .  A
N562        H577   1.046       .  S
N562        H578   1.045       .  S
C564        C565   1.403       .  A
C564        H569   1.084       .  S
C565        C566   1.419       .  A
C565        N570   1.433       .  S
C566        C567   1.413       .  A
C567        C568   1.406       .  A
C567        H571   1.074       .  S
C568        N572   1.439       .  S
N570        H573   1.046       .  S
N570        H574   1.045       .  S
N572        H575   1.045       .  S
N572        H576   1.046       .  S
C581        C582   1.406       .  A
C581        C586   1.401       .  A
C582        C583   1.403       .  A
C582        N587   1.432       .  S
C583        C584   1.403       .  A
C583        H588   1.084       .  S
C584        C589   1.479       .  S
C584        C585   1.410       .  A
C585        C586   1.404       .  A
C585        N590   1.438       .  S
C586        H591   1.084       .  S
N587        H607   1.045       .  S
N587        H608   1.046       .  S
C589        C592   1.401       .  A
C589        C596   1.410       .  A
N590        H605   1.046       .  S
N590        H606   1.046       .  S
C592        C593   1.398       .  A
C592        H597   1.084       .  S
C593        C594   1.407       .  A
C593        N598   1.432       .  S
C594        C595   1.403       .  A
C595        C596   1.409       .  A
C595        H599   1.084       .  S
C596        N600   1.437       .  S
N598        H601   1.045       .  S
N598        H602   1.046       .  S
N600        H603   1.045       .  S
N600        H604   1.046       .  S
C609        C610   1.410       .  A
C609        C614   1.406       .  A
C610        C611   1.404       .  A
C610        N615   1.432       .  S
C611        C612   1.401       .  A
C611        H616   1.084       .  S
C612        C617   1.481   1_545  S
C612        C613   1.409       .  A
C613        C614   1.406       .  A
C613        N618   1.438       .  S
C614        H619   1.084       .  S
N615        H635   1.045       .  S
N615        H636   1.045       .  S
C617        C620   1.404       .  A
C617        C624   1.409       .  A
N618        H633   1.045       .  S
N618        H634   1.046       .  S
C620        C621   1.410       .  A
C620        H625   1.083       .  S
C621        C622   1.409       .  A
C621        N626   1.437       .  S
C622        C623   1.402       .  A
C623        C624   1.402       .  A
C623        H627   1.084       .  S
C624        N628   1.438       .  S
N626        H629   1.046       .  S
N626        H630   1.046       .  S
N628        H631   1.046       .  S
N628        H632   1.045   1_565  S
C637        C638   1.420       .  A
C637        C642   1.414       .  A
C638        C639   1.402       .  A
C638        N643   1.433       .  S
C639        C640   1.398       .  A
C639        H644   1.084       .  S
C640        C645   1.481       .  S
C640        C641   1.406       .  A
C641        C642   1.408       .  A
C641        N646   1.438       .  S
C642        H647   1.075       .  S
N643        H663   1.046       .  S
N643        H664   1.045       .  S
C645        C648   1.403       .  A
C645        C652   1.408       .  A
N646        H661   1.045       .  S
N646        H662   1.046       .  S
C648        C649   1.407       .  A
C648        H653   1.084       .  S
C649        C650   1.413       .  A
C649        N654   1.438       .  S
C650        C651   1.404       .  A
C651        C652   1.403       .  A
C651        H655   1.084       .  S
C652        N656   1.438       .  S
N654        H657   1.046       .  S
N654        H658   1.046       .  S
N656        H659   1.046       .  S
N656        H660   1.045       .  S
C665        C666   1.413       .  A
C665        C670   1.405       .  A
C666        C667   1.401       .  A
C666        N671   1.433       .  S
C667        C668   1.403       .  A
C667        H672   1.084       .  S
C668        C673   1.482   1_554  S
C668        C669   1.410       .  A
C669        C670   1.406       .  A
C669        N674   1.438       .  S
C670        H675   1.084       .  S
N671        H691   1.046       .  S
N671        H692   1.042       .  S
C673        C676   1.400       .  A
C673        C680   1.409       .  A
N674        H689   1.045       .  S
N674        H690   1.044       .  S
C676        C677   1.407       .  A
C676        H681   1.084       .  S
C677        C678   1.415       .  A
C677        N682   1.438       .  S
C678        C679   1.405       .  A
C679        C680   1.408       .  A
C679        H683   1.078       .  S
C680        N684   1.438       .  S
N682        H685   1.045       .  S
N682        H686   1.046       .  S
N684        H687   1.045       .  S
N684        H688   1.045   1_556  S
C693        C694   1.405       .  A
C693        C698   1.402       .  A
C694        C695   1.405       .  A
C694        N699   1.432       .  S
C695        C696   1.404       .  A
C695        H700   1.084       .  S
C696        C701   1.482   1_655  S
C696        C697   1.411       .  A
C697        C698   1.405       .  A
C697        N702   1.438       .  S
C698        H703   1.084       .  S
N699        H719   1.045       .  S
N699        H720   1.045       .  S
C701        C704   1.399       .  A
C701        C708   1.410       .  A
N702        H717   1.045       .  S
N702        H718   1.046       .  S
C704        C705   1.402       .  A
C704        H709   1.084       .  S
C705        C706   1.414       .  A
C705        N710   1.431       .  S
C706        C707   1.407       .  A
C707        C708   1.409       .  A
C707        H711   1.083       .  S
C708        N712   1.437       .  S
N710        H713   1.046       .  S
N710        H714   1.046       .  S
N712        H715   1.046       .  S
N712        H716   1.045   1_455  S
C721        C722   1.408       .  A
C721        C726   1.399       .  A
C722        C723   1.406       .  A
C722        N727   1.432       .  S
C723        C724   1.404       .  A
C723        H728   1.084       .  S
C724        C729   1.482       .  S
C724        C725   1.409       .  A
C725        C726   1.404       .  A
C725        N730   1.438       .  S
C726        H731   1.078       .  S
N727        H747   1.045       .  S
N727        H748   1.046       .  S
C729        C732   1.402       .  A
C729        C736   1.410       .  A
N730        H745   1.046       .  S
N730        H746   1.046       .  S
C732        C733   1.400       .  A
C732        H737   1.084       .  S
C733        C734   1.409       .  A
C733        N738   1.433       .  S
C734        C735   1.404       .  A
C735        C736   1.410       .  A
C735        H739   1.084       .  S
C736        N740   1.437       .  S
N738        H741   1.045       .  S
N738        H742   1.046       .  S
N740        H743   1.045       .  S
N740        H744   1.046       .  S
C749        C750   1.417       .  A
C749        C754   1.409       .  A
C750        C751   1.410       .  A
C750        N755   1.438       .  S
C751        C752   1.404       .  A
C751        H756   1.084       .  S
C752        C757   1.492       .  S
C752        C753   1.410       .  A
C753        C754   1.406       .  A
C753        N758   1.438       .  S
C754        H759   1.083       .  S
N755        H775   1.046       .  S
N755        H776   1.046       .  S
C757        C760   1.400       .  A
C757        C764   1.410       .  A
N758        H773   1.046       .  S
N758        H774   1.045       .  S
C760        C761   1.404       .  A
C760        H765   1.084       .  S
C761        C762   1.421       .  A
C761        N766   1.433       .  S
C762        C763   1.413       .  A
C763        C764   1.411       .  A
C763        H767   1.076       .  S
C764        N768   1.438       .  S
N766        H769   1.045       .  S
N766        H770   1.046       .  S
N768        H771   1.046       .  S
N768        H772   1.046       .  S
C777        C778   1.406       .  A
C777        C782   1.400       .  A
C778        C779   1.405       .  A
C778        N783   1.431       .  S
C779        C780   1.407       .  A
C779        H784   1.084       .  S
C780        C785   1.493   1_545  S
C780        C781   1.414       .  A
C781        C782   1.405       .  A
C781        N786   1.438       .  S
C782        H787   1.083       .  S
N783        H803   1.046       .  S
N783        H804   1.046       .  S
C785        C788   1.405       .  A
C785        C792   1.414       .  A
N786        H801   1.046       .  S
N786        H802   1.046       .  S
C788        C789   1.404       .  A
C788        H793   1.084       .  S
C789        C790   1.411       .  A
C789        N794   1.432       .  S
C790        C791   1.405       .  A
C791        C792   1.406       .  A
C791        H795   1.083       .  S
C792        N796   1.438       .  S
N794        H797   1.046       .  S
N794        H798   1.045       .  S
N796        H799   1.046       .  S
N796        H800   1.046   1_565  S
C805        C806   1.416       .  A
C805        C810   1.405       .  A
C806        C807   1.408       .  A
C806        N811   1.438       .  S
C807        C808   1.401       .  A
C807        H812   1.084       .  S
C808        C813   1.480   1_554  S
C808        C809   1.406       .  A
C809        C810   1.404       .  A
C809        N814   1.438       .  S
C810        H815   1.080       .  S
N811        H831   1.046       .  S
N811        H832   1.046       .  S
C813        C816   1.402       .  A
C813        C820   1.408       .  A
N814        H829   1.046       .  S
N814        H830   1.045       .  S
C816        C817   1.407       .  A
C816        H821   1.084       .  S
C817        C818   1.412       .  A
C817        N822   1.438       .  S
C818        C819   1.403       .  A
C819        C820   1.405       .  A
C819        H823   1.084       .  S
C820        N824   1.438       .  S
N822        H825   1.045       .  S
N822        H826   1.046       .  S
N824        H827   1.045       .  S
N824        H828   1.046       .  S
C833        C834   1.417       .  A
C833        C838   1.407       .  A
C834        C835   1.411       .  A
C834        N839   1.435       .  S
C835        C836   1.400       .  A
C835        H840   1.084       .  S
C836        C841   1.483       .  S
C836        C837   1.409       .  A
C837        C838   1.405       .  A
C837        N842   1.438       .  S
C838        H843   1.083       .  S
N839        H859   1.043       .  S
N839        H860   1.046       .  S
C841        C844   1.401       .  A
C841        C848   1.409       .  A
N842        H857   1.046       .  S
N842        H858   1.046       .  S
C844        C845   1.405       .  A
C844        H849   1.084       .  S
C845        C846   1.414       .  A
C845        N850   1.438       .  S
C846        C847   1.407       .  A
C847        C848   1.408       .  A
C847        H851   1.081       .  S
C848        N852   1.437       .  S
N850        H853   1.046       .  S
N850        H854   1.045       .  S
N852        H855   1.046       .  S
N852        H856   1.045       .  S
C861        C862   1.418       .  A
C861        C866   1.414       .  A
C862        C863   1.401       .  A
C862        N867   1.433       .  S
C863        C864   1.397       .  A
C863        H868   1.084       .  S
C864        C869   1.476       .  S
C864        C865   1.404       .  A
C865        C866   1.406       .  A
C865        N870   1.438       .  S
C866        H871   1.075       .  S
N867        H887   1.046       .  S
N867        H888   1.045       .  S
C869        C872   1.399       .  A
C869        C876   1.406       .  A
N870        H885   1.045       .  S
N870        H886   1.046       .  S
C872        C873   1.404       .  A
C872        H877   1.084       .  S
C873        C874   1.416       .  A
C873        N878   1.438       .  S
C874        C875   1.408       .  A
C875        C876   1.406       .  A
C875        H879   1.083       .  S
C876        N880   1.438       .  S
N878        H881   1.045       .  S
N878        H882   1.046       .  S
N880        H883   1.046       .  S
N880        H884   1.046       .  S
C889        C890   1.411       .  A
C889        C894   1.403       .  A
C890        C891   1.408       .  A
C890        N895   1.438       .  S
C891        C892   1.403       .  A
C891        H896   1.084       .  S
C892        C897   1.484       .  S
C892        C893   1.409       .  A
C893        C894   1.406       .  A
C893        N898   1.438       .  S
C894        H899   1.084       .  S
N895        H915   1.046       .  S
N895        H916   1.046       .  S
C897        C900   1.400       .  A
C897        C904   1.405       .  A
N898        H913   1.045       .  S
N898        H914   1.046       .  S
C900        C901   1.404       .  A
C900        H905   1.084       .  S
C901        C902   1.418       .  A
C901        N906   1.433       .  S
C902        C903   1.414       .  A
C903        C904   1.406       .  A
C903        H907   1.074       .  S
C904        N908   1.438       .  S
N906        H909   1.046       .  S
N906        H910   1.046       .  S
N908        H911   1.046       .  S
N908        H912   1.045       .  S
C917        C918   1.413       .  A
C917        C922   1.403       .  A
C918        C919   1.405       .  A
C918        N923   1.439       .  S
C919        C920   1.404       .  A
C919        H924   1.084       .  S
C920        C925   1.495       .  S
C920        C921   1.415       .  A
C921        C922   1.412       .  A
C921        N926   1.437       .  S
C922        H927   1.084       .  S
N923        H943   1.046       .  S
N923        H944   1.046       .  S
C925        C928   1.402       .  A
C925        C932   1.409       .  A
N926        H941   1.046       .  S
N926        H942   1.046       .  S
C928        C929   1.409       .  A
C928        H933   1.083       .  S
C929        C930   1.423       .  A
C929        N934   1.438       .  S
C930        C931   1.413       .  A
C931        C932   1.407       .  A
C931        H935   1.078       .  S
C932        N936   1.438       .  S
N934        H937   1.046       .  S
N934        H938   1.044       .  S
N936        H939   1.046       .  S
N936        H940   1.046       .  S
C945        C946   1.415       .  A
C945        C950   1.409       .  A
C946        C947   1.410       .  A
C946        N951   1.437       .  S
C947        C948   1.404       .  A
C947        H952   1.084       .  S
C948        C953   1.483       .  S
C948        C949   1.406       .  A
C949        C950   1.403       .  A
C949        N954   1.438       .  S
C950        H955   1.083       .  S
N951        H971   1.046       .  S
N951        H972   1.046       .  S
C953        C956   1.399       .  A
C953        C960   1.406       .  A
N954        H969   1.046       .  S
N954        H970   1.045       .  S
C956        C957   1.405       .  A
C956        H961   1.084       .  S
C957        C958   1.421       .  A
C957        N962   1.433       .  S
C958        C959   1.412       .  A
C959        C960   1.406       .  A
C959        H963   1.075       .  S
C960        N964   1.438       .  S
N962        H965   1.046       .  S
N962        H966   1.046       .  S
N964        H967   1.046       .  S
N964        H968   1.045       .  S
C973        C974   1.414       .  A
C973        C978   1.406       .  A
C974        C975   1.406       .  A
C974        N979   1.438       .  S
C975        C976   1.401       .  A
C975        H980   1.084       .  S
C976        C981   1.480       .  S
C976        C977   1.409       .  A
C977        C978   1.408       .  A
C977        N982   1.438       .  S
C978        H983   1.084       .  S
N979        H999   1.046       .  S
N979       H1000   1.045       .  S
C981        C984   1.397       .  A
C981        C988   1.408       .  A
N982        H997   1.046       .  S
N982        H998   1.044       .  S
C984        C985   1.401       .  A
C984        H989   1.084       .  S
C985        C986   1.419       .  A
C985        N990   1.433       .  S
C986        C987   1.413       .  A
C987        C988   1.408       .  A
C987        H991   1.079       .  S
C988        N992   1.439       .  S
N990        H993   1.046       .  S
N990        H994   1.045       .  S
N992        H995   1.046       .  S
N992        H996   1.044       .  S
C1001      C1002   1.415       .  A
C1001      C1006   1.405       .  A
C1002      C1003   1.404       .  A
C1002      N1007   1.439       .  S
C1003      C1004   1.402       .  A
C1003      H1008   1.084       .  S
C1004      C1009   1.486       .  S
C1004      C1005   1.410       .  A
C1005      C1006   1.409       .  A
C1005      N1010   1.437       .  S
C1006      H1011   1.084       .  S
N1007      H1027   1.045       .  S
N1007      H1028   1.046       .  S
C1009      C1012   1.401       .  A
C1009      C1016   1.406       .  A
N1010      H1025   1.045       .  S
N1010      H1026   1.046       .  S
C1012      C1013   1.409       .  A
C1012      H1017   1.084       .  S
C1013      C1014   1.422       .  A
C1013      N1018   1.437       .  S
C1014      C1015   1.412       .  A
C1015      C1016   1.404       .  A
C1015      H1019   1.082       .  S
C1016      N1020   1.438       .  S
N1018      H1021   1.045       .  S
N1018      H1022   1.046       .  S
N1020      H1023   1.046       .  S
N1020      H1024   1.046       .  S
