geometry optimzed in LAMMPS
_audit_creation_date              2020-11-30 
_audit_creation_method            'lammps2cif' 
_symmetry_space_group_name_H-M    'P1' 
_symmetry_Int_Tables_number       1 
_symmetry_cell_setting            triclinic 
loop_ 
_symmetry_equiv_pos_as_xyz 
  x,y,z 
_cell_length_a                    29.20269412 
_cell_length_b                    29.19081901202211 
_cell_length_c                    29.191200958142257 
_cell_angle_alpha                 89.99850191477408 
_cell_angle_beta                  89.9963830951005 
_cell_angle_gamma                 90.00067439892233 
loop_ 
_atom_site_label 
_atom_site_type_symbol 
_atom_site_fract_x 
_atom_site_fract_y 
_atom_site_fract_z 
_atom_site_charge 
O1          O  0.00045575  0.07642389  0.13680345    -0.78900
O2          O  0.99923287  0.07533763  0.87547659    -0.80500
O3          O  0.07652237  0.13030379  0.00675517    -0.77500
O4          O  0.92580703  0.13164323  0.00524076    -0.75900
O5          O  0.86990061  0.07650062  0.00568123    -0.77700
O6          O  0.13144494  0.07417613  0.00719538    -0.78600
O7          O  0.99981045  0.13099722  0.93089292    -0.79900
O8          O  0.00134804  0.13173219  0.08105008    -0.80200
Eu9        Eu  0.00078310  0.09342530  0.00616236     2.39200
O10         O  0.95401025  0.04712520  0.95972729    -0.87700
O11         O  0.04689813  0.04672957  0.05286950    -0.91300
C12         C  0.00107899  0.11842943  0.12315553     1.03400
C13         C  0.99912144  0.11745757  0.88886504     1.03200
C14         C  0.11843187  0.11636759  0.00719687     1.03100
C15         C  0.88367318  0.11844432  0.00518712     1.01000
H16         H  0.06630988  0.06537561  0.94048772     0.30700
O17         O  0.04706410  0.04648394  0.95965059    -1.00100
H18         H  0.93432090  0.06703458  0.07209920     0.30800
O19         O  0.95340490  0.04785962  0.05305063    -1.02600
O20         O  0.99946893  0.92451856  0.87611701    -0.79900
O21         O  0.99848297  0.92629824  0.13797887    -0.79400
O22         O  0.13085196  0.99846449  0.93131144    -0.77900
O23         O  0.86927704  0.00163915  0.93115484    -0.81200
O24         O  0.86904931  0.99876840  0.08120316    -0.79000
O25         O  0.13042399  0.99922288  0.08190287    -0.77700
O26         O  0.07435510  0.86883655  0.00632816    -0.79200
O27         O  0.92352253  0.87020058  0.00784799    -0.81100
O28         O  0.13020283  0.92402635  0.00573721    -0.77900
O29         O  0.86863840  0.92634696  0.00692932    -0.80600
O30         O  0.07540003  0.99871560  0.87572488    -0.76300
O31         O  0.07481386  0.00036941  0.13733971    -0.76300
O32         O  0.92437630  0.99868186  0.13689309    -0.76000
O33         O  0.92477484  0.00079178  0.87562774    -0.79500
O34         O  0.99888635  0.86913320  0.93183216    -0.78900
O35         O  0.99797823  0.87036835  0.08282664    -0.77200
Eu36       Eu  0.00005938  0.00002486  0.91340668     2.39800
Eu37       Eu  0.99974946  0.00094813  0.09945207     2.39600
Eu38       Eu  0.09289516  0.99945542  0.00652118     2.38400
Eu39       Eu  0.90712490  0.00111803  0.00629604     2.39900
Eu40       Eu  0.99923935  0.90716915  0.00698131     2.39800
O41         O  0.95321807  0.95455510  0.05299255    -0.91600
O42         O  0.04603145  0.95316879  0.96019190    -0.90500
C43         C  0.99902051  0.88248647  0.88971500     1.03500
C44         C  0.99784291  0.88417076  0.12480375     1.02300
C45         C  0.11745454  0.99825808  0.88921346     1.01600
C46         C  0.88271390  0.00138101  0.88909009     1.03700
C47         C  0.88238641  0.99779291  0.12327118     1.02600
C48         C  0.11686850  0.99962897  0.12394406     1.01400
C49         C  0.11651607  0.88203876  0.00580616     1.01500
C50         C  0.88160833  0.88414737  0.00763804     1.04100
H51         H  0.06498384  0.93430766  0.07264172     0.31500
O52         O  0.04608825  0.95350851  0.05344318    -1.03800
H53         H  0.93383214  0.93485249  0.94101247     0.33500
O54         O  0.95312969  0.95384399  0.96001253    -1.06400
O55         O  0.00034118  0.42555194  0.37524139    -0.78900
O56         O  0.99934703  0.42523836  0.63684310    -0.80500
O57         O  0.07582814  0.36974549  0.50446480    -0.77500
O58         O  0.92493495  0.36974448  0.50630782    -0.75900
O59         O  0.86949021  0.42536569  0.50628789    -0.77700
O60         O  0.13133617  0.42529268  0.50422768    -0.78600
O61         O  0.99932113  0.36963664  0.58137580    -0.79900
O62         O  0.00078477  0.36985191  0.43063532    -0.80200
Eu63       Eu  0.00036004  0.40734748  0.50594409     2.39200
O64         O  0.95389127  0.45396505  0.55233726    -0.87700
O65         O  0.04660859  0.45402870  0.45930408    -0.91300
C66         C  0.00068000  0.38346241  0.38862145     1.03400
C67         C  0.99889206  0.38316499  0.62344762     1.03200
C68         C  0.11789848  0.38322888  0.50385050     1.03100
C69         C  0.88287994  0.38327720  0.50638823     1.01000
H70         H  0.06633359  0.43446915  0.57160262     0.30700
O71         O  0.04720717  0.45360145  0.55255720    -1.00100
H72         H  0.93441787  0.43482268  0.44014406     0.30800
O73         O  0.95357439  0.45380752  0.45929906    -1.02600
O74         O  0.00098942  0.57540667  0.63702612    -0.79900
O75         O  0.99912592  0.57626176  0.37578358    -0.79400
O76         O  0.13123163  0.50132809  0.58085599    -0.77900
O77         O  0.86946630  0.49987672  0.58100566    -0.81200
O78         O  0.86947397  0.50208049  0.43063481    -0.79000
O79         O  0.13065868  0.49998480  0.43003649    -0.77700
O80         O  0.07576424  0.63100696  0.50605721    -0.79200
O81         O  0.92535259  0.63124867  0.50573502    -0.81100
O82         O  0.13127420  0.57546980  0.50544000    -0.77900
O83         O  0.86974007  0.57581217  0.50544504    -0.80600
O84         O  0.07571637  0.50117841  0.63641189    -0.76300
O85         O  0.07492000  0.50041950  0.37473862    -0.76300
O86         O  0.92496481  0.50217973  0.37510947    -0.76000
O87         O  0.92502666  0.49964183  0.63649889    -0.79500
O88         O  0.00118378  0.63105538  0.58162606    -0.78900
O89         O  0.99937208  0.63158987  0.43151771    -0.77200
Eu90       Eu  0.00043665  0.50031061  0.59892549     2.39800
Eu91       Eu  0.00004491  0.50073846  0.41302502     2.39600
Eu92       Eu  0.09338673  0.50036114  0.50564559     2.38400
Eu93       Eu  0.90731466  0.50054484  0.50592476     2.39900
Eu94       Eu  0.00048187  0.59340714  0.50636562     2.39800
O95         O  0.95381308  0.54722025  0.45970956    -0.91600
O96         O  0.04712604  0.54679811  0.55255989    -0.90500
C97         C  0.00120249  0.61750848  0.62365801     1.03500
C98         C  0.99892109  0.61827088  0.38943230     1.02300
C99         C  0.11774940  0.50155161  0.62292456     1.01600
C100        C  0.88295668  0.49953039  0.62304503     1.03700
C101        C  0.88291952  0.50263853  0.38855338     1.02600
C102        C  0.11701927  0.50011139  0.38801097     1.01400
C103        C  0.11780330  0.61752336  0.50559631     1.01500
C104        C  0.88329292  0.61783875  0.50537292     1.04100
H105        H  0.06586310  0.56632720  0.44016802     0.31500
O106        O  0.04688537  0.54718324  0.45934247    -1.03800
H107        H  0.93462146  0.56612638  0.57197922     0.33500
O108        O  0.95367869  0.54704632  0.55281734    -1.06400
O109        O  0.63070850  0.99776745  0.43039235    -0.78900
O110        O  0.36915759  0.00033908  0.43107226    -0.80500
O111        O  0.50052036  0.92480263  0.37469860    -0.77500
O112        O  0.49911736  0.07538610  0.37519186    -0.75900
O113        O  0.49908509  0.13071390  0.43093359    -0.77700
O114        O  0.50120636  0.86917528  0.43011814    -0.78600
O115        O  0.42447232  0.00019952  0.37532757    -0.79900
O116        O  0.57508235  0.99798910  0.37494722    -0.80200
Eu117      Eu  0.49996306  0.00001476  0.41271687     2.39200
O118        O  0.45358428  0.04643300  0.45946669    -0.87700
O119        O  0.54668388  0.95366649  0.45912902    -0.91300
C120        C  0.61712964  0.99707259  0.38836376     1.03400
C121        C  0.38246254  0.00029234  0.38896973     1.03200
C122        C  0.50106759  0.88269850  0.38808076     1.03100
C123        C  0.49874336  0.11740213  0.38882246     1.01000
H124        H  0.43444758  0.93426914  0.43996686     0.30700
O125        O  0.45351815  0.95333540  0.45911996    -1.00100
H126        H  0.56592305  0.06566461  0.43989490     0.30800
O127        O  0.54686490  0.04658384  0.45905908    -1.02600
O128        O  0.36960269  0.99825256  0.58144505    -0.79900
O129        O  0.63086895  0.00059679  0.58124650    -0.79400
O130        O  0.42519852  0.86911480  0.50523120    -0.77900
O131        O  0.42510676  0.13065646  0.50534211    -0.81200
O132        O  0.57534576  0.13070985  0.50634109    -0.79000
O133        O  0.57568461  0.86923601  0.50469069    -0.77700
O134        O  0.49940864  0.92355768  0.63602827    -0.79200
O135        O  0.50042539  0.07447704  0.63671998    -0.81100
O136        O  0.49950131  0.86840231  0.58012737    -0.77900
O137        O  0.50062386  0.13018036  0.58132870    -0.80600
O138        O  0.36963928  0.92461559  0.50566795    -0.76300
O139        O  0.63115988  0.92481044  0.50520961    -0.76300
O140        O  0.63102034  0.07534845  0.50584029    -0.76000
O141        O  0.36951715  0.07520826  0.50542932    -0.79500
O142        O  0.42516125  0.99785886  0.63691650    -0.78900
O143        O  0.57532708  0.99995706  0.63676562    -0.77200
Eu144      Eu  0.40721976  0.99985291  0.50605853     2.39800
Eu145      Eu  0.59328866  0.99995709  0.50578926     2.39600
Eu146      Eu  0.50038967  0.90683082  0.50536546     2.38400
Eu147      Eu  0.50022583  0.09270826  0.50603517     2.39900
Eu148      Eu  0.50023281  0.99924564  0.59887261     2.39800
O149        O  0.54669608  0.04611064  0.55253413    -0.91600
O150        O  0.45377038  0.95297354  0.55215116    -0.90500
C151        C  0.38309190  0.99758287  0.62350892     1.03500
C152        C  0.61737930  0.00050752  0.62332782     1.02300
C153        C  0.38315308  0.88257839  0.50532727     1.01600
C154        C  0.38303343  0.11726912  0.50509227     1.03700
C155        C  0.61744716  0.11740204  0.50613316     1.02600
C156        C  0.61771844  0.88274501  0.50474503     1.01400
C157        C  0.49917426  0.88156758  0.62226410     1.01500
C158        C  0.50058553  0.11658056  0.62334036     1.04100
H159        H  0.56613904  0.93377105  0.57132516     0.31500
O160        O  0.54704534  0.95294522  0.55229378    -1.03800
H161        H  0.43448966  0.06528958  0.57197481     0.33500
O162        O  0.45361139  0.04628682  0.55279869    -1.06400
O163        O  0.42600186  0.36842444  0.00608216    -0.78900
O164        O  0.42442556  0.63028624  0.00470982    -0.80500
O165        O  0.36918434  0.49903753  0.08049873    -0.77500
O166        O  0.36949265  0.49955548  0.93029007    -0.75900
O167        O  0.42505190  0.49978544  0.87480062    -0.77700
O168        O  0.42461161  0.49929024  0.13611155    -0.78600
O169        O  0.36919076  0.57448010  0.00449317    -0.79900
O170        O  0.37003285  0.42351398  0.00610825    -0.80200
Eu171      Eu  0.40716351  0.49915781  0.00542244     2.39200
O172        O  0.45351268  0.54579180  0.95892359    -0.87700
O173        O  0.45385134  0.45285562  0.05197456    -0.91300
C174        C  0.38386334  0.38154944  0.00628047     1.03400
C175        C  0.38244904  0.61664348  0.00439150     1.03200
C176        C  0.38257384  0.49915561  0.12258049     1.03100
C177        C  0.38298397  0.49985039  0.88825770     1.01000
H178        H  0.43397088  0.56511283  0.07108981     0.30700
O179        O  0.45319888  0.54607165  0.05206417    -1.00100
H180        H  0.43488936  0.43338749  0.93984198     0.30800
O181        O  0.45386252  0.45261114  0.95893884    -1.02600
O182        O  0.57435396  0.63122231  0.00633265    -0.79900
O183        O  0.57623975  0.36945105  0.00496637    -0.79400
O184        O  0.49984337  0.57463659  0.13644441    -0.77900
O185        O  0.49892875  0.57433922  0.87457722    -0.81200
O186        O  0.50081517  0.42417360  0.87492419    -0.79000
O187        O  0.49884625  0.42439479  0.13631247    -0.77700
O188        O  0.63081528  0.50227197  0.08108818    -0.79200
O189        O  0.63117993  0.49977323  0.93065799    -0.81100
O190        O  0.57516004  0.50162496  0.13647986    -0.77900
O191        O  0.57569190  0.49892094  0.87509412    -0.80600
O192        O  0.49970868  0.63019910  0.08093070    -0.76300
O193        O  0.49939412  0.36882179  0.08083574    -0.76300
O194        O  0.50130829  0.36870469  0.93051395    -0.76000
O195        O  0.49844678  0.63007404  0.92991255    -0.79500
O196        O  0.63036297  0.57619575  0.00642742    -0.78900
O197        O  0.63136627  0.42539202  0.00518426    -0.77200
Eu198      Eu  0.49960985  0.59269068  0.00543068     2.39800
Eu199      Eu  0.50085254  0.40667253  0.00567059     2.39600
Eu200      Eu  0.49998081  0.49961313  0.09853448     2.38400
Eu201      Eu  0.50031974  0.49941392  0.91261153     2.39900
Eu202      Eu  0.59325723  0.50045383  0.00578895     2.39800
O203        O  0.54714860  0.45348045  0.95930029    -0.91600
O204        O  0.54619900  0.54648726  0.05210125    -0.90500
C205        C  0.61651811  0.61816521  0.00667991     1.03500
C206        C  0.61817243  0.38323966  0.00481132     1.02300
C207        C  0.49980499  0.61669403  0.12300666     1.01600
C208        C  0.49828731  0.61642469  0.88788991     1.03700
C209        C  0.50114611  0.38213151  0.88843452     1.02600
C210        C  0.49862674  0.38232278  0.12287972     1.01400
C211        C  0.61724876  0.50260475  0.12311943     1.01500
C212        C  0.61773604  0.49912058  0.88859266     1.04100
H213        H  0.56644268  0.43429063  0.07170288     0.31500
O214        O  0.54729048  0.45323015  0.05248862    -1.03800
H215        H  0.56563077  0.56581894  0.93971645     0.33500
O216        O  0.54666253  0.54661651  0.95884689    -1.06400
C217        C  0.49640234  0.28378460  0.22187462     0.18200
C218        C  0.51156072  0.23941012  0.21167655    -0.10900
C219        C  0.51172748  0.20568471  0.24569220    -0.11700
C220        C  0.49673664  0.21618528  0.29005506     0.19800
C221        C  0.48144243  0.26053337  0.30024317    -0.13800
C222        C  0.48128474  0.29427873  0.26621223    -0.12000
C223        C  0.49727801  0.18150641  0.32507736     0.00800
C224        C  0.49793961  0.15227158  0.35423019    -0.32100
C225        C  0.49675449  0.31855948  0.18694898     0.02100
C226        C  0.49750252  0.34764209  0.15764873    -0.33700
H227        H  0.52334987  0.23094389  0.17751706     0.13200
H228        H  0.52362784  0.17150850  0.23745363     0.13000
H229        H  0.46978008  0.26901930  0.33444160     0.12900
H230        H  0.46952356  0.32849892  0.27447066     0.11900
C231        C  0.50111151  0.78328596  0.28983533     0.18200
C232        C  0.53259103  0.78495891  0.25365224    -0.10900
C233        C  0.53221803  0.75096427  0.21989233    -0.11700
C234        C  0.50037255  0.71513809  0.22216124     0.19800
C235        C  0.46897460  0.71336348  0.25842471    -0.13800
C236        C  0.46934567  0.74737245  0.29219604    -0.12000
C237        C  0.49991002  0.68034069  0.18723835     0.00800
C238        C  0.49978010  0.65133508  0.15784335    -0.32100
C239        C  0.50130003  0.81847567  0.32438259     0.02100
C240        C  0.50131816  0.84793350  0.35333852    -0.33700
H241        H  0.55731721  0.81254711  0.25150258     0.13200
H242        H  0.55666576  0.75264607  0.19202253     0.13000
H243        H  0.44422047  0.68579542  0.26053421     0.12900
H244        H  0.44486547  0.74572670  0.32003959     0.11900
C245        C  0.49716372  0.71383463  0.78783208     0.18200
C246        C  0.45982989  0.74361998  0.78326750    -0.10900
C247        C  0.46010729  0.77742292  0.74932568    -0.11700
C248        C  0.49770056  0.78155395  0.71979432     0.19800
C249        C  0.53490283  0.75154661  0.72413903    -0.13800
C250        C  0.53464077  0.71775811  0.75811243    -0.12000
C251        C  0.49823383  0.81681629  0.68536329     0.00800
C252        C  0.49863985  0.84649722  0.65666030    -0.32100
C253        C  0.49720703  0.67956601  0.82323500     0.02100
C254        C  0.49753999  0.65089641  0.85293248    -0.33700
H255        H  0.43066748  0.74084939  0.80604693     0.13200
H256        H  0.43115729  0.80042835  0.74623547     0.13000
H257        H  0.56412974  0.75441465  0.70145395     0.12900
H258        H  0.56367281  0.69487148  0.76133824     0.11900
C259        C  0.50078933  0.28357461  0.78950410     0.18200
C260        C  0.53802555  0.25360397  0.78537639    -0.10900
C261        C  0.53789568  0.21968490  0.75156611    -0.11700
C262        C  0.50053063  0.21560682  0.72175576     0.19800
C263        C  0.46332265  0.24564225  0.72579893    -0.13800
C264        C  0.46344992  0.27957139  0.75962602    -0.12000
C265        C  0.50040256  0.18059284  0.68711219     0.00800
C266        C  0.50049990  0.15125482  0.65808587    -0.32100
C267        C  0.50090074  0.31832642  0.82442298     0.02100
C268        C  0.50108380  0.34741076  0.85371308    -0.33700
H269        H  0.56707154  0.25642726  0.80829418     0.13200
H270        H  0.56684312  0.19664502  0.74870016     0.13000
H271        H  0.43427108  0.24279014  0.70289017     0.12900
H272        H  0.43449198  0.30259447  0.76252097     0.11900
C273        C  0.71549637  0.21709852  0.50522410     0.18200
C274        C  0.70805792  0.25852980  0.52832314    -0.10900
C275        C  0.74193130  0.29244297  0.52839180    -0.11700
C276        C  0.78339529  0.28507825  0.50536281     0.19800
C277        C  0.79070824  0.24377120  0.48203073    -0.13800
C278        C  0.75684722  0.20986648  0.48196590    -0.12000
C279        C  0.81851841  0.31970793  0.50589723     0.00800
C280        C  0.84800550  0.34863626  0.50628388    -0.32100
C281        C  0.68090760  0.18191540  0.50562516     0.02100
C282        C  0.65203277  0.15236098  0.50596201    -0.33700
H283        H  0.67620534  0.26452475  0.54638701     0.13200
H284        H  0.73588020  0.32426847  0.54650610     0.13000
H285        H  0.82260789  0.23772215  0.46406783     0.12900
H286        H  0.76296186  0.17799520  0.46395632     0.11900
C287        C  0.71649670  0.78409624  0.50456471     0.18200
C288        C  0.71545768  0.74890518  0.47194725    -0.10900
C289        C  0.74941980  0.71513847  0.47200272    -0.11700
C290        C  0.78453222  0.71645465  0.50467643     0.19800
C291        C  0.78553666  0.75160585  0.53733316    -0.13800
C292        C  0.75156998  0.78536384  0.53728523    -0.12000
C293        C  0.81944395  0.68173110  0.50476405     0.00800
C294        C  0.84865037  0.65259038  0.50498368    -0.32100
C295        C  0.68163861  0.81888794  0.50444586     0.02100
C296        C  0.65244610  0.84805452  0.50447088    -0.33700
H297        H  0.68846271  0.74760244  0.44652029     0.13200
H298        H  0.74831939  0.68807192  0.44662864     0.13000
H299        H  0.81252699  0.75290178  0.56276689     0.12900
H300        H  0.75266055  0.81241336  0.56267747     0.11900
C301        C  0.28452557  0.21639374  0.50312056     0.18200
C302        C  0.28763120  0.25308525  0.47230141    -0.10900
C303        C  0.25383114  0.28707334  0.47191857    -0.11700
C304        C  0.21680780  0.28450020  0.50237029     0.19800
C305        C  0.21371796  0.24779610  0.53313842    -0.13800
C306        C  0.24747793  0.21382213  0.53350406    -0.12000
C307        C  0.18204326  0.31947342  0.50225831     0.00800
C308        C  0.15271662  0.34855333  0.50279789    -0.32100
C309        C  0.31931191  0.18144791  0.50368979     0.02100
C310        C  0.34837597  0.15210967  0.50436684    -0.33700
H311        H  0.31613742  0.25542011  0.44865744     0.13200
H312        H  0.25657853  0.31530862  0.44798379     0.13000
H313        H  0.18525956  0.24547616  0.55684056     0.12900
H314        H  0.24472858  0.18561764  0.55747427     0.11900
C315        C  0.28434386  0.78403774  0.50414507     0.18200
C316        C  0.26574500  0.76866832  0.54561630    -0.10900
C317        C  0.23184267  0.73487024  0.54562383    -0.11700
C318        C  0.21642182  0.71629152  0.50416307     0.19800
C319        C  0.23499445  0.73166749  0.46265474    -0.13800
C320        C  0.26891011  0.76550203  0.46264643    -0.12000
C321        C  0.18163889  0.68143366  0.50433206     0.00800
C322        C  0.15249426  0.65223121  0.50491698    -0.32100
C323        C  0.31924602  0.81876553  0.50427542     0.02100
C324        C  0.34847237  0.84787882  0.50475936    -0.33700
H325        H  0.27745488  0.78278298  0.57788320     0.13200
H326        H  0.21769953  0.72320956  0.57789723     0.13000
H327        H  0.22330160  0.71750902  0.43040116     0.12900
H328        H  0.28308529  0.77716374  0.43038666     0.11900
C329        C  0.71654176  0.50522878  0.22143915     0.18200
C330        C  0.74447420  0.46666358  0.22740432    -0.10900
C331        C  0.77843844  0.46658560  0.26118076    -0.11700
C332        C  0.78464731  0.50507230  0.28917758     0.19800
C333        C  0.75686247  0.54374977  0.28308658    -0.13800
C334        C  0.72286866  0.54382522  0.24928919    -0.12000
C335        C  0.81925189  0.50464405  0.32431882     0.00800
C336        C  0.84823402  0.50380653  0.35374106    -0.32100
C337        C  0.68131760  0.50498007  0.18692390     0.02100
C338        C  0.65193689  0.50408186  0.15790680    -0.33700
H339        H  0.73990179  0.43664517  0.20605971     0.13200
H340        H  0.79972286  0.43650311  0.26557026     0.13000
H341        H  0.76136790  0.57370855  0.30452763     0.12900
H342        H  0.70148085  0.57384402  0.24497041     0.11900
C343        C  0.28341735  0.50027042  0.22099690     0.18200
C344        C  0.29468641  0.51114776  0.26636463    -0.10900
C345        C  0.26075880  0.51124423  0.30018715    -0.11700
C346        C  0.21541510  0.50045412  0.28879500     0.19800
C347        C  0.20411421  0.48969553  0.24339755    -0.13800
C348        C  0.23804652  0.48961448  0.20956465    -0.12000
C349        C  0.18059432  0.50027626  0.32369705     0.00800
C350        C  0.15156632  0.50012301  0.35307017    -0.32100
C351        C  0.31840967  0.49984695  0.18627898     0.02100
C352        C  0.34775655  0.49943437  0.15723482    -0.33700
H353        H  0.32965496  0.51944798  0.27557940     0.13200
H354        H  0.26987324  0.51962666  0.33517470     0.13000
H355        H  0.16916109  0.48130837  0.23420409     0.12900
H356        H  0.22895373  0.48116553  0.17458687     0.11900
C357        C  0.28332167  0.50153558  0.79048718     0.18200
C358        C  0.28239481  0.53669110  0.75782931    -0.10900
C359        C  0.24853025  0.53710759  0.72396950    -0.11700
C360        C  0.21546518  0.50236390  0.72263716     0.19800
C361        C  0.21616359  0.46739638  0.75551567    -0.13800
C362        C  0.25003855  0.46697728  0.78938049    -0.12000
C363        C  0.18113787  0.50234309  0.68730944     0.00800
C364        C  0.15236781  0.50208529  0.65772314    -0.32100
C365        C  0.31858972  0.50078575  0.82487184     0.02100
C366        C  0.34818530  0.50026928  0.85363179    -0.33700
H367        H  0.30793713  0.56360510  0.75842357     0.13200
H368        H  0.24826108  0.56432927  0.69873939     0.13000
H369        H  0.19071316  0.44039596  0.75481797     0.12900
H370        H  0.25041162  0.43966523  0.81451270     0.11900
C371        C  0.71630550  0.49858205  0.78964864     0.18200
C372        C  0.74791732  0.53460792  0.78730160    -0.10900
C373        C  0.78167382  0.53473324  0.75332479    -0.11700
C374        C  0.78396225  0.49883121  0.72155859     0.19800
C375        C  0.75229428  0.46283769  0.72383798    -0.13800
C376        C  0.71853214  0.46270779  0.75783172    -0.12000
C377        C  0.81887129  0.49889485  0.68678273     0.00800
C378        C  0.84820295  0.49911936  0.65773710    -0.32100
C379        C  0.68158608  0.49851459  0.82461502     0.02100
C380        C  0.65246623  0.49870854  0.85387428    -0.33700
H381        H  0.74647485  0.56253114  0.81171110     0.13200
H382        H  0.80598047  0.56273753  0.75185187     0.13000
H383        H  0.75374744  0.43491789  0.69942488     0.12900
H384        H  0.69423009  0.43470063  0.75932245     0.11900
C385        C  0.78123593  0.78691618  0.00843817     0.18200
C386        C  0.77015598  0.76384648  0.04905404    -0.10900
C387        C  0.73643001  0.72980102  0.04891471    -0.11700
C388        C  0.71362834  0.71869017  0.00816076     0.19800
C389        C  0.72447589  0.74200111  0.96762319    -0.13800
C390        C  0.75819508  0.77604044  0.96776265    -0.12000
C391        C  0.67941787  0.68316812  0.00782512     0.00800
C392        C  0.65083598  0.65335048  0.00733261    -0.32100
C393        C  0.81659258  0.82128785  0.00835478     0.02100
C394        C  0.84638077  0.84989317  0.00808879    -0.33700
H395        H  0.78773421  0.77199540  0.08070681     0.13200
H396        H  0.72829773  0.71202572  0.08046628     0.13000
H397        H  0.70704370  0.73371843  0.93592469     0.12900
H398        H  0.76646472  0.79367387  0.93616659     0.11900
C399        C  0.71728617  0.28501169  0.00393601     0.18200
C400        C  0.75177065  0.28568568  0.03728299    -0.10900
C401        C  0.78570376  0.25191129  0.03734433    -0.11700
C402        C  0.78526016  0.21734791  0.00406292     0.19800
C403        C  0.75078815  0.21667230  0.97069258    -0.13800
C404        C  0.71684263  0.25045406  0.97063365    -0.12000
C405        C  0.82005976  0.18253435  0.00428599     0.00800
C406        C  0.84918917  0.15333085  0.00465724    -0.32100
C407        C  0.68234868  0.31969542  0.00399712     0.02100
C408        C  0.65307423  0.34876008  0.00429629    -0.33700
H409        H  0.75238943  0.31225077  0.06319733     0.13200
H410        H  0.81220450  0.25270727  0.06330830     0.13000
H411        H  0.75014011  0.19006309  0.94482353     0.12900
H412        H  0.69029701  0.24962215  0.94471712     0.11900
C413        C  0.21572654  0.78351392  0.00476263     0.18200
C414        C  0.25262048  0.78628098  0.03534972    -0.10900
C415        C  0.28661297  0.75248367  0.03511737    -0.11700
C416        C  0.28386033  0.71576922  0.00429300     0.19800
C417        C  0.24704555  0.71309497  0.97363138    -0.13800
C418        C  0.21306882  0.74687834  0.97386253    -0.12000
C419        C  0.31861965  0.68076303  0.00421050     0.00800
C420        C  0.34763450  0.65135334  0.00416534    -0.32100
C421        C  0.18058126  0.81813631  0.00512452     0.02100
C422        C  0.15116945  0.84715330  0.00540774    -0.31700
H423        H  0.25505067  0.81446701  0.05937581     0.13200
H424        H  0.31493002  0.75492140  0.05897354     0.13000
H425        H  0.24457352  0.68488279  0.94964230     0.12900
H426        H  0.18472816  0.74439831  0.95004145     0.11900
C427        C  0.28656268  0.28140609  0.00700510     0.18200
C428        C  0.27082341  0.26340355  0.04862049    -0.10900
C429        C  0.23693574  0.22955092  0.04882951    -0.11700
C430        C  0.21865763  0.21359286  0.00742275     0.19800
C431        C  0.23461473  0.23138179  0.96579880    -0.13800
C432        C  0.26850522  0.26522543  0.96558958    -0.12000
C433        C  0.18330120  0.17928714  0.00762640     0.00800
C434        C  0.15358487  0.15064304  0.00755614    -0.32100
C435        C  0.32090222  0.31672717  0.00680703     0.02100
C436        C  0.34954347  0.34644395  0.00659616    -0.33700
H437        H  0.28458524  0.27566160  0.08083479     0.13200
H438        H  0.22486262  0.21599251  0.08120207     0.13000
H439        H  0.22073309  0.21924842  0.93358814     0.12900
H440        H  0.28046283  0.27889712  0.93322090     0.11900
C441        C  0.78373396  0.00138852  0.79042676     0.18200
C442        C  0.74051524  0.02016542  0.79953388    -0.10900
C443        C  0.70668007  0.02011852  0.76559942    -0.11700
C444        C  0.71591484  0.00127634  0.72242109     0.19800
C445        C  0.75912174  0.98248474  0.71333137    -0.13800
C446        C  0.79295128  0.98253890  0.74725496    -0.12000
C447        C  0.68111662  0.00115830  0.68748776     0.00800
C448        C  0.65204694  0.00092221  0.65815317    -0.32100
C449        C  0.81861677  0.00151434  0.82528031     0.02100
C450        C  0.84792123  0.00154858  0.85438399    -0.33700
H451        H  0.73300885  0.03482877  0.83279335     0.13200
H452        H  0.67339028  0.03473618  0.77300612     0.13000
H453        H  0.76663333  0.96781809  0.68007421     0.12900
H454        H  0.82624100  0.96792724  0.73983705     0.11900
C455        C  0.28442096  0.99618664  0.72253726     0.18200
C456        C  0.25235907  0.96052608  0.72474646    -0.10900
C457        C  0.21843584  0.96078050  0.75861731    -0.11700
C458        C  0.21642084  0.99669926  0.79042153     0.19800
C459        C  0.24852338  0.03231002  0.78822797    -0.13800
C460        C  0.28243462  0.03205148  0.75437848    -0.12000
C461        C  0.18146469  0.99708568  0.82524407     0.00800
C462        C  0.15224653  0.99758648  0.85445997    -0.32100
C463        C  0.31921389  0.99615389  0.68756671     0.02100
C464        C  0.34838016  0.99662407  0.65831127    -0.33700
H465        H  0.25355681  0.93262193  0.70030229     0.13200
H466        H  0.19380372  0.93305811  0.75998337     0.13000
H467        H  0.24730899  0.06025040  0.81262868     0.12900
H468        H  0.30703432  0.05980254  0.75299465     0.11900
C469        C  0.28310377  0.99915627  0.29085387     0.18200
C470        C  0.28109547  0.03459131  0.25856407    -0.10900
C471        C  0.24724748  0.03432085  0.22470915    -0.11700
C472        C  0.21525396  0.99861522  0.22298905     0.19800
C473        C  0.21720729  0.96315519  0.25529571    -0.13800
C474        C  0.25108084  0.96343082  0.28918788    -0.12000
C475        C  0.18046906  0.99852764  0.18811388     0.00800
C476        C  0.15145554  0.99898123  0.15876984    -0.32100
C477        C  0.31809201  0.99949131  0.32553722     0.02100
C478        C  0.34755180  0.99998154  0.35444280    -0.33700
H479        H  0.30568357  0.06236871  0.25955098     0.13200
H480        H  0.24602048  0.06190469  0.19990362     0.13000
H481        H  0.19261139  0.93538369  0.25427422     0.12900
H482        H  0.25232928  0.93585797  0.31400524     0.11900
C483        C  0.78346340  0.99333383  0.22165905     0.18200
C484        C  0.75878934  0.95319157  0.23090638    -0.10900
C485        C  0.72488046  0.95317872  0.26479438    -0.11700
C486        C  0.71560337  0.99330055  0.28949548     0.19800
C487        C  0.74032916  0.03334284  0.28023624    -0.13800
C488        C  0.77416702  0.03335821  0.24640606    -0.12000
C489        C  0.68075250  0.99366082  0.32429650     0.00800
C490        C  0.65170292  0.99505611  0.35357479    -0.32100
C491        C  0.81826126  0.99377626  0.18680442     0.02100
C492        C  0.84756385  0.99542396  0.15779129    -0.33700
H493        H  0.76572047  0.92204142  0.21195260     0.13200
H494        H  0.70593767  0.92201850  0.27169859     0.13000
H495        H  0.73342132  0.06453138  0.29913550     0.12900
H496        H  0.79304570  0.06456055  0.23951684     0.11900
C497        C  0.99661816  0.21758279  0.79134833     0.18200
C498        C  0.95888394  0.22229972  0.76206440    -0.10900
C499        C  0.95883763  0.25622775  0.72820164    -0.11700
C500        C  0.99651672  0.28558614  0.72350045     0.19800
C501        C  0.03402144  0.28118314  0.75310990    -0.13800
C502        C  0.03406713  0.24726989  0.78695993    -0.12000
C503        C  0.99697882  0.31986175  0.68804187     0.00800
C504        C  0.99780564  0.34857767  0.65835729    -0.32100
C505        C  0.99721504  0.18199886  0.82549835     0.02100
C506        C  0.99809588  0.15227179  0.85417301    -0.33700
H507        H  0.92970527  0.19959134  0.76520580     0.13200
H508        H  0.92962244  0.25937512  0.70554341     0.13000
H509        H  0.06330192  0.30374296  0.74983377     0.12900
H510        H  0.06338435  0.24399213  0.80946833     0.11900
C511        C  0.99837226  0.78418851  0.79037647     0.18200
C512        C  0.96827756  0.74688959  0.79298554    -0.10900
C513        C  0.96888207  0.71311974  0.75898776    -0.11700
C514        C  0.99958650  0.71650302  0.72225179     0.19800
C515        C  0.02949060  0.75393773  0.71950172    -0.13800
C516        C  0.02888005  0.78770784  0.75348992    -0.12000
C517        C  0.00048970  0.68153453  0.68751002     0.00800
C518        C  0.00106377  0.65221963  0.65842839    -0.32100
C519        C  0.99820675  0.81867199  0.82562462     0.02100
C520        C  0.99848723  0.84768413  0.85502221    -0.33700
H521        H  0.94450557  0.74385258  0.82132047     0.13200
H522        H  0.94555519  0.68435703  0.76140306     0.13000
H523        H  0.05331756  0.75693509  0.69120752     0.12900
H524        H  0.05225581  0.81643272  0.75110233     0.11900
C525        C  0.99696280  0.78618567  0.22425027     0.18200
C526        C  0.03606463  0.77932388  0.25119793    -0.10900
C527        C  0.03632524  0.74523658  0.28484878    -0.11700
C528        C  0.99748977  0.71788994  0.29165053     0.19800
C529        C  0.95834665  0.72483809  0.26479290    -0.13800
C530        C  0.95807983  0.75893693  0.23115418    -0.12000
C531        C  0.99785653  0.68265281  0.32605780     0.00800
C532        C  0.99827628  0.65315652  0.35491565    -0.32100
C533        C  0.99689335  0.82087973  0.18928820     0.02100
C534        C  0.99714964  0.84977729  0.15982363    -0.33700
H535        H  0.06631739  0.80020216  0.24610870     0.13200
H536        H  0.06676420  0.74013750  0.30544903     0.13000
H537        H  0.92814183  0.70387050  0.26979228     0.12900
H538        H  0.92768014  0.76396153  0.21047985     0.11900
C539        C  0.00103546  0.21718903  0.22181950     0.18200
C540        C  0.97202307  0.25519612  0.21777808    -0.10900
C541        C  0.97188457  0.28897666  0.25173211    -0.11700
C542        C  0.00075101  0.28485195  0.28983765     0.19800
C543        C  0.02970479  0.24680569  0.29392014    -0.13800
C544        C  0.02985471  0.21303328  0.25995868    -0.12000
C545        C  0.00074634  0.31967692  0.32465269     0.00800
C546        C  0.00076327  0.34884864  0.35383502    -0.32100
C547        C  0.00120515  0.18246660  0.18689614     0.02100
C548        C  0.00125683  0.15327681  0.15772536    -0.33700
H549        H  0.94958861  0.25870782  0.18842608     0.13200
H550        H  0.94936029  0.31826742  0.24827069     0.13000
H551        H  0.05214469  0.24329840  0.32326891     0.12900
H552        H  0.05239968  0.18375712  0.26340707     0.11900
loop_ 
_geom_bond_atom_site_label_1 
_geom_bond_atom_site_label_2 
_geom_bond_distance 
_geom_bond_site_symmetry_2 
_ccdc_geom_bond_type 
O1           C12   1.289       .  A
O1          Eu37   2.458   1_455  S
O2           C13   1.290       .  A
O2          Eu36   2.462   1_655  S
O3           C14   1.290       .  A
O3           Eu9   2.460       .  S
O4           C15   1.289       .  A
O4           Eu9   2.457   1_655  S
O5           C15   1.289       .  A
O5          Eu39   2.454       .  S
O6           C14   1.289       .  A
O6          Eu38   2.455   1_545  S
O7           C13   1.289       .  A
O7           Eu9   2.456   1_656  S
O8           C12   1.289       .  A
O8           Eu9   2.456       .  S
Eu9          O19   2.357   1_455  S
Eu9          O11   2.352       .  S
Eu9          O10   2.352   1_454  S
Eu9          O17   2.355   1_554  S
O10         Eu39   2.351   1_556  S
O10         Eu36   2.351   1_655  S
O11         Eu37   2.352   1_455  S
O11         Eu38   2.354   1_545  S
C12         C548   1.433       .  S
C13         C506   1.435       .  S
C14         C434   1.434       .  S
C15         C406   1.432       .  S
H16          O17   0.966       .  S
O17         Eu38   2.355   1_546  S
O17         Eu36   2.355       .  S
H18          O19   0.966       .  S
O19         Eu37   2.354       .  S
O19         Eu39   2.356       .  S
O20          C43   1.290       .  A
O20         Eu36   2.458   1_665  S
O21          C44   1.289       .  A
O21         Eu37   2.452   1_565  S
O22          C45   1.290       .  A
O22         Eu38   2.460   1_556  S
O23          C46   1.289       .  A
O23         Eu39   2.456   1_556  S
O24          C47   1.289       .  A
O24         Eu39   2.454   1_565  S
O25          C48   1.290       .  A
O25         Eu38   2.458       .  S
O26          C49   1.290       .  A
O26         Eu40   2.463   1_455  S
O27          C50   1.290       .  A
O27         Eu40   2.461       .  S
O28          C49   1.289       .  A
O28         Eu38   2.457       .  S
O29          C50   1.289       .  A
O29         Eu39   2.455   1_565  S
O30          C45   1.290       .  A
O30         Eu36   2.460   1_565  S
O31          C48   1.289   1_545  A
O31         Eu37   2.455   1_455  S
O32          C47   1.289       .  A
O32         Eu37   2.458   1_565  S
O33          C46   1.290       .  A
O33         Eu36   2.460   1_655  S
O34          C43   1.290       .  A
O34         Eu40   2.459   1_556  S
O35          C44   1.290       .  A
O35         Eu40   2.461       .  S
Eu36         O54   2.355   1_445  S
Eu36         O42   2.353   1_545  S
Eu37         O41   2.349   1_545  S
Eu37         O52   2.356   1_645  S
Eu38         O52   2.354       .  S
Eu38         O42   2.351   1_554  S
Eu39         O41   2.349   1_545  S
Eu39         O54   2.353   1_544  S
Eu40         O41   2.350       .  S
Eu40         O52   2.354   1_655  S
Eu40         O54   2.356   1_554  S
Eu40         O42   2.353   1_654  S
C43         C520   1.435       .  S
C44         C534   1.433       .  S
C45         C462   1.436       .  S
C46         C450   1.435       .  S
C47         C492   1.433       .  S
C48         C476   1.433       .  S
C49         C422   1.436       .  S
C50         C394   1.435       .  S
H51          O52   0.966       .  S
H53          O54   0.966       .  S
O55          C66   1.289       .  A
O55         Eu91   2.456       .  S
O56          C67   1.289       .  A
O56         Eu90   2.455   1_655  S
O57          C68   1.290       .  A
O57         Eu63   2.462       .  S
O58          C69   1.290       .  A
O58         Eu63   2.461   1_655  S
O59          C69   1.289       .  A
O59         Eu93   2.457       .  S
O60          C68   1.289       .  A
O60         Eu92   2.456       .  S
O61          C67   1.290       .  A
O61         Eu63   2.462   1_655  S
O62          C66   1.289       .  A
O62         Eu63   2.456       .  S
Eu63         O73   2.358   1_455  S
Eu63         O65   2.352       .  S
Eu63         O64   2.351   1_455  S
Eu63         O71   2.355       .  S
O64         Eu93   2.353       .  S
O64         Eu90   2.351   1_655  S
O65         Eu91   2.352       .  S
O65         Eu92   2.351       .  S
C66         C546   1.433       .  S
C67         C504   1.435       .  S
C68         C308   1.435       .  S
C69         C280   1.435       .  S
H70          O71   0.966       .  S
O71         Eu92   2.357       .  S
O71         Eu90   2.357       .  S
H72          O73   0.966       .  S
O73         Eu91   2.354   1_655  S
O73         Eu93   2.353       .  S
O74          C97   1.289       .  A
O74         Eu90   2.458       .  S
O75          C98   1.289       .  A
O75         Eu91   2.458   1_655  S
O76          C99   1.290       .  A
O76         Eu92   2.458       .  S
O77         C100   1.289       .  A
O77         Eu93   2.455       .  S
O78         C101   1.290       .  A
O78         Eu93   2.460       .  S
O79         C102   1.290       .  A
O79         Eu92   2.461       .  S
O80         C103   1.289       .  A
O80         Eu94   2.457       .  S
O81         C104   1.289       .  A
O81         Eu94   2.456   1_655  S
O82         C103   1.289       .  A
O82         Eu92   2.456       .  S
O83         C104   1.289       .  A
O83         Eu93   2.456       .  S
O84          C99   1.289       .  A
O84         Eu90   2.456       .  S
O85         C102   1.289       .  A
O85         Eu91   2.456       .  S
O86         C101   1.289       .  A
O86         Eu91   2.456   1_655  S
O87         C100   1.290       .  A
O87         Eu90   2.460   1_655  S
O88          C97   1.289       .  A
O88         Eu94   2.457       .  S
O89          C98   1.289       .  A
O89         Eu94   2.453   1_655  S
Eu90        O108   2.353   1_455  S
Eu90         O96   2.352       .  S
Eu91         O95   2.350   1_455  S
Eu91        O106   2.353       .  S
Eu92        O106   2.354       .  S
Eu92         O96   2.353       .  S
Eu93         O95   2.349       .  S
Eu93        O108   2.356       .  S
Eu94         O95   2.352   1_455  S
Eu94        O106   2.354       .  S
Eu94        O108   2.353   1_455  S
Eu94         O96   2.351       .  S
C97         C518   1.434       .  S
C98         C532   1.433       .  S
C99         C364   1.433       .  S
C100        C378   1.434       .  S
C101        C336   1.435       .  S
C102        C350   1.435       .  S
C103        C322   1.433       .  S
C104        C294   1.433       .  S
H105        O106   0.966       .  S
H107        O108   0.966       .  S
O109        C120   1.290       .  A
O109       Eu145   2.458       .  S
O110        C121   1.289       .  A
O110       Eu144   2.455   1_545  S
O111        C122   1.290       .  A
O111       Eu117   2.460   1_565  S
O112        C123   1.289       .  A
O112       Eu117   2.458       .  S
O113        C123   1.289       .  A
O113       Eu147   2.457       .  S
O114        C122   1.289       .  A
O114       Eu146   2.456       .  S
O115        C121   1.290       .  A
O115       Eu117   2.460       .  S
O116        C120   1.289       .  A
O116       Eu117   2.456   1_565  S
Eu117       O127   2.357       .  S
Eu117       O119   2.351   1_545  S
Eu117       O118   2.352       .  S
Eu117       O125   2.352   1_545  S
O118       Eu147   2.351       .  S
O118       Eu144   2.352   1_545  S
O119       Eu145   2.352       .  S
O119       Eu146   2.349       .  S
C120        C490   1.433       .  S
C121        C478   1.434   1_545  S
C122        C240   1.435       .  S
C123        C224   1.434       .  S
H124        O125   0.966       .  S
O125       Eu146   2.353       .  S
O125       Eu144   2.356       .  S
H126        O127   0.966       .  S
O127       Eu145   2.356   1_545  S
O127       Eu147   2.355       .  S
O128        C151   1.290       .  A
O128       Eu144   2.460       .  S
O129        C152   1.290       .  A
O129       Eu145   2.461   1_545  S
O130        C153   1.289       .  A
O130       Eu146   2.456       .  S
O131        C154   1.289       .  A
O131       Eu147   2.458       .  S
O132        C155   1.289       .  A
O132       Eu147   2.458       .  S
O133        C156   1.289       .  A
O133       Eu146   2.458       .  S
O134        C157   1.290       .  A
O134       Eu148   2.461       .  S
O135        C158   1.290       .  A
O135       Eu148   2.458   1_545  S
O136        C157   1.289       .  A
O136       Eu146   2.454       .  S
O137        C158   1.289       .  A
O137       Eu147   2.455       .  S
O138        C153   1.289       .  A
O138       Eu144   2.455       .  S
O139        C156   1.289       .  A
O139       Eu145   2.457       .  S
O140        C155   1.290       .  A
O140       Eu145   2.461   1_545  S
O141        C154   1.290       .  A
O141       Eu144   2.460   1_545  S
O142        C151   1.289       .  A
O142       Eu148   2.458       .  S
O143        C152   1.289   1_565  A
O143       Eu148   2.456       .  S
Eu144       O162   2.353   1_565  S
Eu144       O150   2.352       .  S
Eu145       O149   2.351   1_565  S
Eu145       O160   2.356       .  S
Eu146       O160   2.355       .  S
Eu146       O150   2.352       .  S
Eu147       O149   2.353       .  S
Eu147       O162   2.356       .  S
Eu148       O149   2.354   1_565  S
Eu148       O160   2.355       .  S
Eu148       O162   2.355   1_565  S
Eu148       O150   2.351       .  S
C151        C464   1.435       .  S
C152        C448   1.435       .  S
C153        C324   1.432       .  S
C154        C310   1.435       .  S
C155        C282   1.436       .  S
C156        C296   1.433       .  S
C157        C252   1.434       .  S
C158        C266   1.433       .  S
H159        O160   0.966       .  S
H161        O162   0.966       .  S
O163        C174   1.289       .  A
O163       Eu199   2.454       .  S
O164        C175   1.289       .  A
O164       Eu198   2.455       .  S
O165        C176   1.289       .  A
O165       Eu171   2.456       .  S
O166        C177   1.289       .  A
O166       Eu171   2.454   1_556  S
O167        C177   1.290       .  A
O167       Eu201   2.460       .  S
O168        C176   1.290       .  A
O168       Eu200   2.459       .  S
O169        C175   1.290       .  A
O169       Eu171   2.463       .  S
O170        C174   1.290       .  A
O170       Eu171   2.460       .  S
Eu171       O181   2.355   1_554  S
Eu171       O173   2.352       .  S
Eu171       O172   2.351   1_554  S
Eu171       O179   2.353       .  S
O172       Eu201   2.351       .  S
O172       Eu198   2.352   1_556  S
O173       Eu199   2.351       .  S
O173       Eu200   2.351       .  S
C174        C436   1.433       .  S
C175        C420   1.435       .  S
C176        C352   1.434       .  S
C177        C366   1.433       .  S
H178        O179   0.966       .  S
O179       Eu200   2.355       .  S
O179       Eu198   2.354       .  S
H180        O181   0.966       .  S
O181       Eu199   2.354   1_556  S
O181       Eu201   2.353       .  S
O182        C205   1.289       .  A
O182       Eu198   2.456       .  S
O183        C206   1.289       .  A
O183       Eu199   2.455       .  S
O184        C207   1.289       .  A
O184       Eu200   2.454       .  S
O185        C208   1.289       .  A
O185       Eu201   2.453       .  S
O186        C209   1.289       .  A
O186       Eu201   2.457       .  S
O187        C210   1.289       .  A
O187       Eu200   2.457       .  S
O188        C211   1.289       .  A
O188       Eu202   2.457       .  S
O189        C212   1.289       .  A
O189       Eu202   2.457   1_556  S
O190        C211   1.290       .  A
O190       Eu200   2.460       .  S
O191        C212   1.290       .  A
O191       Eu201   2.458       .  S
O192        C207   1.290       .  A
O192       Eu198   2.461       .  S
O193        C210   1.289       .  A
O193       Eu199   2.457       .  S
O194        C209   1.289       .  A
O194       Eu199   2.458   1_556  S
O195        C208   1.290       .  A
O195       Eu198   2.460   1_556  S
O196        C205   1.290       .  A
O196       Eu202   2.462       .  S
O197        C206   1.289       .  A
O197       Eu202   2.458       .  S
Eu198       O216   2.355   1_554  S
Eu198       O204   2.351       .  S
Eu199       O203   2.351   1_554  S
Eu199       O214   2.357       .  S
Eu200       O214   2.356       .  S
Eu200       O204   2.352       .  S
Eu201       O203   2.351       .  S
Eu201       O216   2.356       .  S
Eu202       O203   2.353   1_554  S
Eu202       O214   2.358       .  S
Eu202       O216   2.355   1_554  S
Eu202       O204   2.350       .  S
C205        C392   1.435       .  S
C206        C408   1.433       .  S
C207        C238   1.434       .  S
C208        C254   1.433       .  S
C209        C268   1.433       .  S
C210        C226   1.434       .  S
C211        C338   1.435       .  S
C212        C380   1.434       .  S
H213        O214   0.966       .  S
H215        O216   0.966       .  S
C217        C225   1.439       .  S
C217        C218   1.401       .  A
C217        C222   1.401       .  A
C218        C219   1.398       .  A
C218        H227   1.083       .  S
C219        C220   1.401       .  A
C219        H228   1.083       .  S
C220        C223   1.439       .  S
C220        C221   1.401       .  A
C221        C222   1.399       .  A
C221        H229   1.083       .  S
C222        H230   1.083       .  S
C223        C224   1.205       .  T
C225        C226   1.205       .  T
C231        C239   1.440       .  S
C231        C232   1.401       .  A
C231        C236   1.402       .  A
C232        C233   1.399       .  A
C232        H241   1.083       .  S
C233        C234   1.401       .  A
C233        H242   1.083       .  S
C234        C237   1.439       .  S
C234        C235   1.401       .  A
C235        C236   1.399       .  A
C235        H243   1.083       .  S
C236        H244   1.083       .  S
C237        C238   1.206       .  T
C239        C240   1.206       .  T
C245        C253   1.438       .  S
C245        C246   1.401       .  A
C245        C250   1.401       .  A
C246        C247   1.398       .  A
C246        H255   1.083       .  S
C247        C248   1.401       .  A
C247        H256   1.083       .  S
C248        C251   1.439       .  S
C248        C249   1.401       .  A
C249        C250   1.399       .  A
C249        H257   1.083       .  S
C250        H258   1.084       .  S
C251        C252   1.205       .  T
C253        C254   1.205       .  T
C259        C267   1.438       .  S
C259        C260   1.401       .  A
C259        C264   1.401       .  A
C260        C261   1.398       .  A
C260        H269   1.083       .  S
C261        C262   1.401       .  A
C261        H270   1.083       .  S
C262        C265   1.438       .  S
C262        C263   1.401       .  A
C263        C264   1.399       .  A
C263        H271   1.083       .  S
C264        H272   1.083       .  S
C265        C266   1.205       .  T
C267        C268   1.205       .  T
C273        C281   1.441       .  S
C273        C274   1.402       .  A
C273        C278   1.401       .  A
C274        C275   1.399       .  A
C274        H283   1.083       .  S
C275        C276   1.402       .  A
C275        H284   1.083       .  S
C276        C279   1.440       .  S
C276        C277   1.401       .  A
C277        C278   1.399       .  A
C277        H285   1.083       .  S
C278        H286   1.083       .  S
C279        C280   1.206       .  T
C281        C282   1.206       .  T
C287        C295   1.438       .  S
C287        C288   1.401       .  A
C287        C292   1.401       .  A
C288        C289   1.398       .  A
C288        H297   1.083       .  S
C289        C290   1.401       .  A
C289        H298   1.083       .  S
C290        C293   1.438       .  S
C290        C291   1.401       .  A
C291        C292   1.398       .  A
C291        H299   1.083       .  S
C292        H300   1.083       .  S
C293        C294   1.205       .  T
C295        C296   1.205       .  T
C301        C309   1.440       .  S
C301        C302   1.402       .  A
C301        C306   1.401       .  A
C302        C303   1.400       .  A
C302        H311   1.083       .  S
C303        C304   1.402       .  A
C303        H312   1.083       .  S
C304        C307   1.440       .  S
C304        C305   1.401       .  A
C305        C306   1.398       .  A
C305        H313   1.083       .  S
C306        H314   1.083       .  S
C307        C308   1.206       .  T
C309        C310   1.206       .  T
C315        C323   1.438       .  S
C315        C316   1.401       .  A
C315        C320   1.401       .  A
C316        C317   1.398       .  A
C316        H325   1.083       .  S
C317        C318   1.401       .  A
C317        H326   1.083       .  S
C318        C321   1.438       .  S
C318        C319   1.401       .  A
C319        C320   1.399       .  A
C319        H327   1.083       .  S
C320        H328   1.084       .  S
C321        C322   1.205       .  T
C323        C324   1.205       .  T
C329        C337   1.440       .  S
C329        C330   1.401       .  A
C329        C334   1.402       .  A
C330        C331   1.399       .  A
C330        H339   1.083       .  S
C331        C332   1.401       .  A
C331        H340   1.083       .  S
C332        C335   1.440       .  S
C332        C333   1.402       .  A
C333        C334   1.400       .  A
C333        H341   1.083       .  S
C334        H342   1.083       .  S
C335        C336   1.206       .  T
C337        C338   1.206       .  T
C343        C351   1.439       .  S
C343        C344   1.401       .  A
C343        C348   1.401       .  A
C344        C345   1.399       .  A
C344        H353   1.083       .  S
C345        C346   1.401       .  A
C345        H354   1.083       .  S
C346        C349   1.439       .  S
C346        C347   1.401       .  A
C347        C348   1.399       .  A
C347        H355   1.083       .  S
C348        H356   1.083       .  S
C349        C350   1.206       .  T
C351        C352   1.206       .  T
C357        C365   1.438       .  S
C357        C358   1.401       .  A
C357        C362   1.401       .  A
C358        C359   1.398       .  A
C358        H367   1.083       .  S
C359        C360   1.401       .  A
C359        H368   1.083       .  S
C360        C363   1.438       .  S
C360        C361   1.401       .  A
C361        C362   1.399       .  A
C361        H369   1.084       .  S
C362        H370   1.083       .  S
C363        C364   1.205       .  T
C365        C366   1.205       .  T
C371        C379   1.439       .  S
C371        C372   1.401       .  A
C371        C376   1.401       .  A
C372        C373   1.398       .  A
C372        H381   1.083       .  S
C373        C374   1.401       .  A
C373        H382   1.083       .  S
C374        C377   1.439       .  S
C374        C375   1.401       .  A
C375        C376   1.399       .  A
C375        H383   1.083       .  S
C376        H384   1.083       .  S
C377        C378   1.205       .  T
C379        C380   1.205       .  T
C385        C393   1.440       .  S
C385        C386   1.401       .  A
C385        C390   1.401   1_554  A
C386        C387   1.399       .  A
C386        H395   1.083       .  S
C387        C388   1.401       .  A
C387        H396   1.083       .  S
C388        C391   1.440       .  S
C388        C389   1.401   1_554  A
C389        C390   1.399       .  A
C389        H397   1.083       .  S
C390        H398   1.083       .  S
C391        C392   1.206       .  T
C393        C394   1.206       .  T
C399        C407   1.437       .  S
C399        C400   1.401       .  A
C399        C404   1.401   1_554  A
C400        C401   1.398       .  A
C400        H409   1.083       .  S
C401        C402   1.401       .  A
C401        H410   1.083       .  S
C402        C405   1.437       .  S
C402        C403   1.401   1_554  A
C403        C404   1.398       .  A
C403        H411   1.084       .  S
C404        H412   1.083       .  S
C405        C406   1.204       .  T
C407        C408   1.204       .  T
C413        C421   1.440       .  S
C413        C414   1.402       .  A
C413        C418   1.401   1_554  A
C414        C415   1.400       .  A
C414        H423   1.083       .  S
C415        C416   1.402       .  A
C415        H424   1.083       .  S
C416        C419   1.440       .  S
C416        C417   1.401   1_554  A
C417        C418   1.399       .  A
C417        H425   1.083       .  S
C418        H426   1.083       .  S
C419        C420   1.206       .  T
C421        C422   1.206       .  T
C427        C435   1.438       .  S
C427        C428   1.401       .  A
C427        C432   1.401   1_554  A
C428        C429   1.399       .  A
C428        H437   1.083       .  S
C429        C430   1.401       .  A
C429        H438   1.083       .  S
C430        C433   1.438       .  S
C430        C431   1.401   1_554  A
C431        C432   1.398       .  A
C431        H439   1.083       .  S
C432        H440   1.083       .  S
C433        C434   1.205       .  T
C435        C436   1.205       .  T
C441        C449   1.440       .  S
C441        C442   1.401       .  A
C441        C446   1.401   1_545  A
C442        C443   1.399       .  A
C442        H451   1.083       .  S
C443        C444   1.401       .  A
C443        H452   1.083       .  S
C444        C447   1.440       .  S
C444        C445   1.401   1_545  A
C445        C446   1.399       .  A
C445        H453   1.083       .  S
C446        H454   1.083       .  S
C447        C448   1.206       .  T
C449        C450   1.206       .  T
C455        C463   1.440       .  S
C455        C456   1.402       .  A
C455        C460   1.401   1_565  A
C456        C457   1.400       .  A
C456        H465   1.083       .  S
C457        C458   1.402       .  A
C457        H466   1.083       .  S
C458        C461   1.441       .  S
C458        C459   1.401   1_565  A
C459        C460   1.399       .  A
C459        H467   1.083       .  S
C460        H468   1.083       .  S
C461        C462   1.206       .  T
C463        C464   1.206       .  T
C469        C477   1.438       .  S
C469        C470   1.401   1_565  A
C469        C474   1.402       .  A
C470        C471   1.398       .  A
C470        H479   1.083       .  S
C471        C472   1.401   1_545  A
C471        H480   1.083       .  S
C472        C475   1.438       .  S
C472        C473   1.401       .  A
C473        C474   1.399       .  A
C473        H481   1.084       .  S
C474        H482   1.083       .  S
C475        C476   1.205       .  T
C477        C478   1.205       .  T
C483        C491   1.438       .  S
C483        C484   1.402       .  A
C483        C488   1.400   1_565  A
C484        C485   1.400       .  A
C484        H493   1.083       .  S
C485        C486   1.402       .  A
C485        H494   1.083       .  S
C486        C489   1.438       .  S
C486        C487   1.400   1_565  A
C487        C488   1.397       .  A
C487        H495   1.083       .  S
C488        H496   1.083       .  S
C489        C490   1.205       .  T
C491        C492   1.205       .  T
C497        C505   1.440       .  S
C497        C498   1.401       .  A
C497        C502   1.401   1_655  A
C498        C499   1.399       .  A
C498        H507   1.083       .  S
C499        C500   1.401       .  A
C499        H508   1.083       .  S
C500        C503   1.440       .  S
C500        C501   1.401   1_655  A
C501        C502   1.399       .  A
C501        H509   1.083       .  S
C502        H510   1.083       .  S
C503        C504   1.206       .  T
C505        C506   1.206       .  T
C511        C519   1.439       .  S
C511        C512   1.401       .  A
C511        C516   1.401   1_655  A
C512        C513   1.399       .  A
C512        H521   1.083       .  S
C513        C514   1.401       .  A
C513        H522   1.083       .  S
C514        C517   1.439   1_655  S
C514        C515   1.401   1_655  A
C515        C516   1.399       .  A
C515        H523   1.083       .  S
C516        H524   1.083       .  S
C517        C518   1.206       .  T
C519        C520   1.206       .  T
C525        C533   1.438       .  S
C525        C526   1.401   1_655  A
C525        C530   1.401       .  A
C526        C527   1.398       .  A
C526        H535   1.084       .  S
C527        C528   1.401   1_455  A
C527        H536   1.084       .  S
C528        C531   1.438       .  S
C528        C529   1.401       .  A
C529        C530   1.398       .  A
C529        H537   1.083       .  S
C530        H538   1.083       .  S
C531        C532   1.205       .  T
C533        C534   1.205       .  T
C539        C547   1.438       .  S
C539        C540   1.401   1_455  A
C539        C544   1.401       .  A
C540        C541   1.398       .  A
C540        H549   1.083       .  S
C541        C542   1.401   1_655  A
C541        H550   1.083       .  S
C542        C545   1.437       .  S
C542        C543   1.401       .  A
C543        C544   1.398       .  A
C543        H551   1.083       .  S
C544        H552   1.083       .  S
C545        C546   1.205       .  T
C547        C548   1.205       .  T
