geometry optimzed in LAMMPS
_audit_creation_date              2020-11-30 
_audit_creation_method            'lammps2cif' 
_symmetry_space_group_name_H-M    'P1' 
_symmetry_Int_Tables_number       1 
_symmetry_cell_setting            triclinic 
loop_ 
_symmetry_equiv_pos_as_xyz 
  x,y,z 
_cell_length_a                    45.06795843 
_cell_length_b                    45.06547470831079 
_cell_length_c                    24.759804162617048 
_cell_angle_alpha                 90.6921120529447 
_cell_angle_beta                  89.30895504309939 
_cell_angle_gamma                 90.81832587761996 
loop_ 
_atom_site_label 
_atom_site_type_symbol 
_atom_site_fract_x 
_atom_site_fract_y 
_atom_site_fract_z 
_atom_site_charge 
N1          N  0.49964846  0.21636962  0.05649918    -0.35100
N2          N  0.49238282  0.21552010  0.94305057    -0.55600
N3          N  0.98775174  0.28152688  0.94485019    -0.35100
N4          N  0.00344626  0.28199649  0.05736287    -0.55600
C5          C  0.50528283  0.18745536  0.04564785     0.28500
C6          C  0.01205131  0.22262118  0.10570850     0.28500
C7          C  0.49658742  0.27472232  0.89076892     0.28500
C8          C  0.99624600  0.31029427  0.95148642     0.28500
C9          C  0.48763015  0.18629542  0.95183687     0.37100
C10         C  0.48425509  0.22051695  0.89189721     0.37100
C11         C  0.00451451  0.27727764  0.11102241     0.37100
C12         C  0.99885454  0.31135792  0.05137805     0.37100
C13         C  0.51973995  0.17507839  0.08883505    -0.20300
C14         C  0.02460783  0.19696510  0.12500806    -0.20300
C15         C  0.50720315  0.29989129  0.86449466    -0.20300
C16         C  0.00198275  0.32282167  0.90155993    -0.20300
C17         C  0.47634950  0.17255857  0.90600997    -0.21400
C18         C  0.47416037  0.19432269  0.86789828    -0.21400
C19         C  0.00087972  0.30380100  0.13922671    -0.21400
C20         C  0.99751057  0.32544246  0.10135897    -0.21400
C21         C  0.49617048  0.17175944  0.99902893    -0.16700
C22         C  0.01043776  0.24968434  0.13477036    -0.16700
C23         C  0.99784375  0.32578015  0.00127022    -0.16700
C24         C  0.48916387  0.24754232  0.86491186    -0.16700
H25         H  0.52686455  0.15237608  0.09272844     0.16200
H26         H  0.03601247  0.19428483  0.16282885     0.16200
H27         H  0.51258247  0.30215781  0.82201090     0.16200
H28         H  0.00893472  0.34542641  0.89335055     0.16200
H29         H  0.47099234  0.14925228  0.90026128     0.14500
H30         H  0.46678248  0.19109737  0.82677412     0.14400
H31         H  0.00098629  0.30731643  0.18253793     0.14500
H32         H  0.99455760  0.34885863  0.10964862     0.14400
H33         H  0.48586553  0.23014573  0.03501561     0.27700
H34         H  0.97909536  0.26767149  0.97454152     0.27700
N35         N  0.50143921  0.21921728  0.55656860    -0.35100
N36         N  0.50022572  0.28466543  0.55680779    -0.55600
N37         N  0.50956972  0.28363504  0.44293278    -0.35100
N38         N  0.50856041  0.21807763  0.44322935    -0.55600
C39         C  0.49050714  0.22545369  0.60617317     0.28500
C40         C  0.49536438  0.19018498  0.54633970     0.28500
C41         C  0.50221686  0.31242483  0.45082726     0.28500
C42         C  0.50497007  0.27711687  0.39039203     0.28500
C43         C  0.50230141  0.27963609  0.61011550     0.37100
C44         C  0.50661481  0.31376813  0.54985415     0.37100
C45         C  0.51268645  0.18888582  0.45177325     0.37100
C46         C  0.51613207  0.22295184  0.39139487     0.37100
C47         C  0.47728448  0.20015867  0.62783033    -0.20300
C48         C  0.48047435  0.17782145  0.59003785    -0.20300
C49         C  0.49322991  0.32446992  0.40260653    -0.20300
C50         C  0.49478423  0.30211270  0.36444195    -0.20300
C51         C  0.50993316  0.30570500  0.63733132    -0.21400
C52         C  0.51249751  0.32743797  0.59902195    -0.21400
C53         C  0.52295370  0.17504491  0.40511330    -0.21400
C54         C  0.52519155  0.19670383  0.36671314    -0.21400
C55         C  0.49519490  0.25233692  0.63468722    -0.16700
C56         C  0.50438218  0.17441897  0.49968820    -0.16700
C57         C  0.51148194  0.24982246  0.36451853    -0.16700
C58         C  0.50479982  0.32823933  0.50002291    -0.16500
H59         H  0.46701062  0.19788057  0.66733655     0.16200
H60         H  0.47297140  0.15504756  0.59443923     0.16200
H61         H  0.48625869  0.34697734  0.39567156     0.16200
H62         H  0.48929661  0.30414945  0.32221877     0.16200
H63         H  0.51288812  0.30885165  0.68034515     0.14500
H64         H  0.51778303  0.35062019  0.60649303     0.14400
H65         H  0.52750467  0.15171911  0.39899259     0.14500
H66         H  0.53184733  0.19334226  0.32495906     0.14400
H67         H  0.51569587  0.23299755  0.53463117     0.27700
H68         H  0.52023399  0.27011583  0.47013506     0.27700
O69         O  0.48503596  0.01572971  0.86462293    -0.76900
C70         C  0.41879624  0.99743120  0.99839365     0.84100
O71         O  0.01413710  0.06967260  0.03626650    -0.78100
O72         O  0.48242480  0.48205295  0.13863893    -0.79500
O73         O  0.01693942  0.43048941  0.96668409    -0.79300
O74         O  0.02000006  0.48223619  0.86457691    -0.78000
Zn75       Zn  0.47682708  0.02252451  0.94891381     1.55700
O76         O  0.48402587  0.43012796  0.03474383    -0.79400
Cd77       Cd  0.02583064  0.47514434  0.95037355     1.59700
Cd78       Cd  0.02398396  0.02558446  0.05343453     1.59600
O79         O  0.06999681  0.48445687  0.96935343    -0.79300
O80         O  0.50039687  0.99922389  0.00047716    -1.89900
Cd81       Cd  0.47549303  0.47448384  0.05273343     1.59900
O82         O  0.06880492  0.01836911  0.03649900    -0.79300
O83         O  0.43117251  0.48198696  0.03518927    -0.78000
C84         C  0.49948923  0.08090386  0.00098516     0.84600
C85         C  0.50264389  0.99903129  0.83729859     0.84200
O86         O  0.43339013  0.01309817  0.96433208    -0.76900
C87         C  0.00072350  0.41684352  0.00136572     0.85000
O88         O  0.48425427  0.06606428  0.96662581    -0.77000
C89         C  0.08300573  0.00230293  0.00235145     0.85200
C90         C  0.99965912  0.99998665  0.16531309     0.85500
O91         O  0.01652867  0.01812780  0.13915543    -0.79400
O92         O  0.48441044  0.01776240  0.36544624    -0.76900
C93         C  0.42044553  0.00166201  0.50313215     0.84100
O94         O  0.01943562  0.07037252  0.53695245    -0.78100
O95         O  0.48517558  0.48355891  0.63821351    -0.79500
O96         O  0.01947082  0.43227540  0.46778406    -0.79300
O97         O  0.01945097  0.48287809  0.36396842    -0.78000
Zn98       Zn  0.47825253  0.02565477  0.45039516     1.55700
O99         O  0.48650736  0.43244085  0.53369446    -0.79400
Cd100      Cd  0.02705026  0.47681477  0.44944010     1.59700
Cd101      Cd  0.02722024  0.02597339  0.55350990     1.59600
O102        O  0.07135249  0.48667708  0.46506135    -0.79300
O103        O  0.50208311  0.00170764  0.50063007    -1.89900
Cd104      Cd  0.47766936  0.47671524  0.55243400     1.59900
O105        O  0.07157155  0.01767717  0.53430752    -0.79300
O106        O  0.43320272  0.48496608  0.53651850    -0.78000
C107        C  0.50306706  0.08346562  0.50207889     0.84600
C108        C  0.50121022  0.00050118  0.33746505     0.84200
O109        O  0.43484756  0.01770115  0.46934469    -0.76900
C110        C  0.00329582  0.41854307  0.50238305     0.85000
O111        O  0.48759371  0.06915910  0.46726925    -0.77000
C112        C  0.08501107  0.50253921  0.50015735     0.85200
C113        C  0.00284636  0.50072166  0.66714299     0.85500
O114        O  0.01996101  0.01865057  0.63939244    -0.79400
N115        N  0.28404441  0.00299555  0.05462532    -0.35100
N116        N  0.28329499  0.99511882  0.94107972    -0.55600
N117        N  0.21770491  0.99623815  0.94418215    -0.35100
N118        N  0.21859831  0.00705411  0.05787189    -0.55600
C119        C  0.31326538  0.00725863  0.04335505     0.28500
C120        C  0.27913996  0.01351283  0.10502007     0.28500
C121        C  0.22331456  0.99929252  0.89093661     0.28500
C122        C  0.18913078  0.00406197  0.95303673     0.28500
C123        C  0.31252069  0.99037103  0.94820046     0.37100
C124        C  0.27741392  0.98732768  0.88967949     0.37100
C125        C  0.22433593  0.00480444  0.11092355     0.37100
C126        C  0.18921907  0.00143287  0.05240676     0.37100
C127        C  0.32710820  0.02049908  0.08732345    -0.20300
C128        C  0.30552253  0.02451138  0.12628902    -0.20300
C129        C  0.19792607  0.00889583  0.86548566    -0.20300
C130        C  0.17629026  0.01176159  0.90473231    -0.20300
C131        C  0.32539199  0.97964143  0.90096157    -0.21400
C132        C  0.30308864  0.97766398  0.86377016    -0.21400
C133        C  0.19842063  0.99803860  0.13938649    -0.21400
C134        C  0.17609871  0.99610078  0.10222851    -0.21400
C135        C  0.32790523  0.99796501  0.99560239    -0.16700
C136        C  0.25228957  0.01038702  0.13435342    -0.16700
C137        C  0.17407511  0.00270906  0.00315443    -0.16700
C138        C  0.25011086  0.99195398  0.86415138    -0.16700
H139        H  0.35037949  0.02630528  0.09120588     0.16200
H140        H  0.30897666  0.03385013  0.16624484     0.16200
H141        H  0.19513441  0.01307511  0.82289936     0.16200
H142        H  0.15368662  0.01861530  0.89840508     0.16200
H143        H  0.34848080  0.97441710  0.89375456     0.14500
H144        H  0.30562620  0.97062591  0.82203068     0.14400
H145        H  0.19579486  0.99495422  0.18246876     0.14500
H146        H  0.15293675  0.99128080  0.11083142     0.14400
H147        H  0.26907899  0.99007547  0.03271364     0.27700
H148        H  0.23157092  0.98613885  0.97144773     0.27700
N149        N  0.28416946  0.99929497  0.55700954    -0.35100
N150        N  0.28624636  0.00634380  0.44361613    -0.55600
N151        N  0.22075945  0.00604734  0.44218043    -0.35100
N152        N  0.21863037  0.99644663  0.55531877    -0.55600
C153        C  0.31339854  0.99447738  0.54768836     0.28500
C154        C  0.27766062  0.98900557  0.60664571     0.28500
C155        C  0.22757604  0.00186982  0.38954548     0.28500
C156        C  0.19182375  0.99828747  0.44890122     0.28500
C157        C  0.31532081  0.01141861  0.45335667     0.37100
C158        C  0.28165474  0.01455250  0.39238306     0.37100
C159        C  0.22319027  0.99851492  0.60884633     0.37100
C160        C  0.18967531  0.00244788  0.54795931     0.37100
C161        C  0.32563458  0.98112737  0.59219093    -0.20300
C162        C  0.30303205  0.97765556  0.62948674    -0.20300
C163        C  0.20269456  0.99125606  0.36241751    -0.20300
C164        C  0.18003684  0.98917179  0.39996177    -0.20300
C165        C  0.32938892  0.02282040  0.40795180    -0.21400
C166        C  0.30797516  0.02488783  0.36920654    -0.21400
C167        C  0.19693031  0.00546092  0.63575312    -0.21400
C168        C  0.17561226  0.00784341  0.59703004    -0.21400
C169        C  0.32945454  0.00343470  0.50130267    -0.16700
C170        C  0.25029392  0.99253876  0.63399395    -0.16700
C171        C  0.17564500  0.00104366  0.49762808    -0.16700
C172        C  0.25486676  0.00975743  0.36465998    -0.16700
H173        H  0.34851767  0.97493163  0.59754647     0.16200
H174        H  0.30514942  0.96839845  0.66937576     0.16200
H175        H  0.20088687  0.98607198  0.31976861     0.16200
H176        H  0.15746619  0.98196637  0.39211986     0.16200
H177        H  0.35267174  0.02849327  0.40297943     0.14500
H178        H  0.31151352  0.03242729  0.32825719     0.14400
H179        H  0.19341576  0.00829081  0.67881723     0.14500
H180        H  0.15244945  0.01277657  0.60416297     0.14400
H181        H  0.27027982  0.01236337  0.53438309     0.27700
H182        H  0.23407123  0.01713482  0.47013674     0.27700
C183        C  0.26382294  0.01509176  0.77745544    -0.11800
C184        C  0.25022527  0.99155933  0.80508180     0.10400
C185        C  0.23737100  0.46525836  0.77886729    -0.11800
C186        C  0.23791774  0.46454659  0.72261486    -0.11800
C187        C  0.25053143  0.99166347  0.69300750     0.10400
C188        C  0.26399717  0.01512853  0.72146926    -0.11800
H189        H  0.27415118  0.03336624  0.79937625     0.14300
H190        H  0.22664805  0.44736098  0.80083807     0.14300
H191        H  0.22743407  0.44620228  0.70116300     0.14300
H192        H  0.27439419  0.03347729  0.70020824     0.14300
C193        C  0.26823884  0.49141960  0.22089694    -0.11800
C194        C  0.25402170  0.01139691  0.19344762     0.10400
C195        C  0.24028221  0.03414629  0.22308910    -0.11800
C196        C  0.24103496  0.03399629  0.27924128    -0.11800
C197        C  0.25569578  0.01122214  0.30561984     0.10400
C198        C  0.26887648  0.49099476  0.27687792    -0.11800
H199        H  0.27856364  0.47364957  0.19795095     0.14300
H200        H  0.22868515  0.05159205  0.20272090     0.14300
H201        H  0.22991108  0.05126280  0.30219432     0.14300
H202        H  0.27966242  0.47291115  0.29692455     0.14300
C203        C  0.14345418  0.00166113  0.49615397    -0.11700
C204        C  0.11665619  0.00221919  0.49652655    -0.13300
C205        C  0.38850941  0.00247287  0.50298199    -0.11700
C206        C  0.36170259  0.00310058  0.50228525    -0.13300
C207        C  0.14180216  0.00304823  0.00383092    -0.11700
C208        C  0.11496712  0.00293559  0.00341220    -0.13300
C209        C  0.36012906  0.99736951  0.99497260    -0.11700
C210        C  0.38691794  0.99721776  0.99610856    -0.13300
C211        C  0.00228118  0.00032043  0.77667644    -0.11700
C212        C  0.00233800  0.00084909  0.72629556    -0.13300
C213        C  0.00023618  0.00001698  0.27670191    -0.11700
C214        C  0.99979023  0.99992983  0.22625540    -0.13300
C215        C  0.00397178  0.38656934  0.50272276    -0.11700
C216        C  0.00464318  0.35973593  0.50285158    -0.13300
C217        C  0.50367198  0.14218971  0.50034554    -0.11700
C218        C  0.50324162  0.11538378  0.50108240    -0.13300
C219        C  0.00577038  0.23425542  0.78015426    -0.11800
C220        C  0.48911839  0.24711336  0.80566258     0.10400
C221        C  0.46847272  0.26390298  0.77771439    -0.11800
C222        C  0.47053698  0.26595342  0.72176963    -0.11800
C223        C  0.49323778  0.25119644  0.69378552     0.10400
C224        C  0.00817528  0.23559799  0.72420322    -0.11800
H225        H  0.02334800  0.22423208  0.80282529     0.14300
H226        H  0.45125281  0.27580230  0.79941062     0.14300
H227        H  0.45459360  0.27898509  0.70027710     0.14300
H228        H  0.02741467  0.22627801  0.70397992     0.14300
C229        C  0.03835914  0.26194158  0.21920019    -0.11800
C230        C  0.50889468  0.24873127  0.19334952     0.10400
C231        C  0.48707340  0.23343990  0.22308588    -0.11800
C232        C  0.48817568  0.23354307  0.27906004    -0.11800
C233        C  0.51116604  0.24885409  0.30540275     0.10400
C234        C  0.04021491  0.26204094  0.27546866    -0.11800
H235        H  0.05569397  0.27260888  0.19542890     0.14300
H236        H  0.46905353  0.22185584  0.20287180     0.14300
H237        H  0.47100693  0.22204236  0.30196213     0.14300
H238        H  0.05894361  0.27281928  0.29492226     0.14300
C239        C  0.00031769  0.38487365  0.00068734    -0.11700
C240        C  0.99940810  0.35804224  0.00073012    -0.13300
C241        C  0.49711004  0.13954488  0.99902297    -0.11700
C242        C  0.49826142  0.11278121  0.99993961    -0.13300
N243        N  0.50026295  0.71655036  0.05472074    -0.35100
N244        N  0.48808502  0.71609756  0.94213646    -0.55600
N245        N  0.99060376  0.78160892  0.94634962    -0.35100
N246        N  0.00649264  0.78222782  0.05863111    -0.55600
C247        C  0.50497074  0.68756286  0.04293063     0.28500
C248        C  0.01413364  0.72260337  0.10752485     0.28500
C249        C  0.49095846  0.77522659  0.88970005     0.28500
C250        C  0.99917713  0.81036551  0.95279151     0.28500
C251        C  0.48385049  0.68681484  0.95121787     0.37100
C252        C  0.47847091  0.72112049  0.89181022     0.37100
C253        C  0.00733665  0.77750514  0.11231049     0.37100
C254        C  0.00192867  0.81160462  0.05255988     0.37100
C255        C  0.52049914  0.67475852  0.08445002    -0.20300
C256        C  0.02561754  0.69666752  0.12788228    -0.20300
C257        C  0.50143244  0.80031034  0.86299479    -0.20300
C258        C  0.00498231  0.82280001  0.90283021    -0.20300
C259        C  0.47124966  0.67310888  0.90650225    -0.21400
C260        C  0.46779455  0.69490050  0.86878576    -0.21400
C261        C  0.00369915  0.80408266  0.14039958    -0.21400
C262        C  0.00050882  0.82572387  0.10247016    -0.21400
C263        C  0.49410796  0.67212777  0.99718437    -0.16700
C264        C  0.01260514  0.74979305  0.13630220    -0.16700
C265        C  0.00073578  0.82596215  0.00240648    -0.16700
C266        C  0.48298353  0.74805001  0.86411888    -0.16700
H267        H  0.52726763  0.65189315  0.08741049     0.16200
H268        H  0.03625569  0.69381848  0.16640458     0.16200
H269        H  0.50607614  0.80264273  0.82026808     0.16200
H270        H  0.01203296  0.84536255  0.89450267     0.16200
H271        H  0.46595862  0.64976855  0.90105118     0.14500
H272        H  0.45933305  0.69165353  0.82838160     0.14400
H273        H  0.00351705  0.80763476  0.18370011     0.14500
H274        H  0.99748036  0.84913778  0.11067726     0.14400
H275        H  0.48613003  0.73064659  0.03476230     0.27700
H276        H  0.98179926  0.76784679  0.97605655     0.27700
N277        N  0.50131292  0.71903245  0.55479540    -0.35100
N278        N  0.49988954  0.78415594  0.55542416    -0.55600
N279        N  0.51375661  0.78366741  0.44185179    -0.35100
N280        N  0.51284691  0.71833166  0.44176842    -0.55600
C281        C  0.48877264  0.72491573  0.60338166     0.28500
C282        C  0.49579909  0.69002135  0.54342197     0.28500
C283        C  0.50600016  0.81237579  0.44946382     0.28500
C284        C  0.51103057  0.77742365  0.38863800     0.28500
C285        C  0.50008233  0.77909282  0.60900595     0.37100
C286        C  0.50659620  0.81325910  0.54919147     0.37100
C287        C  0.51629246  0.68905363  0.45055752     0.37100
C288        C  0.52169339  0.72316660  0.39048134     0.37100
C289        C  0.47505368  0.69941448  0.62312666    -0.20300
C290        C  0.47962419  0.67732704  0.58533185    -0.20300
C291        C  0.49880698  0.82469218  0.40042187    -0.20300
C292        C  0.50177261  0.80258004  0.36204361    -0.20300
C293        C  0.50692436  0.80512325  0.63699069    -0.21400
C294        C  0.51082465  0.82685889  0.59900827    -0.21400
C295        C  0.52753741  0.67515955  0.40467422    -0.21400
C296        C  0.53096340  0.69682000  0.36648887    -0.21400
C297        C  0.49224882  0.75171604  0.63286418    -0.16700
C298        C  0.50636180  0.67449557  0.49750906    -0.16700
C299        C  0.51779489  0.75004531  0.36304578    -0.16700
C300        C  0.50649506  0.82790498  0.49928410    -0.16500
H301        H  0.46350396  0.69683815  0.66140530     0.16200
H302        H  0.47214102  0.65448292  0.58858127     0.16200
H303        H  0.49196236  0.84719966  0.39309895     0.16200
H304        H  0.49764997  0.80486319  0.31932971     0.16200
H305        H  0.50858452  0.80826223  0.68025145     0.14500
H306        H  0.51596447  0.85001199  0.60710020     0.14400
H307        H  0.53183510  0.65176762  0.39876495     0.14500
H308        H  0.53846936  0.69340035  0.32521524     0.14400
H309        H  0.51608633  0.73300718  0.53444472     0.27700
H310        H  0.52316109  0.76997776  0.47030389     0.27700
O311        O  0.48446743  0.51545138  0.86402299    -0.76900
C312        C  0.41841517  0.49702291  0.99897072     0.84100
O313        O  0.01455802  0.56932997  0.03780985    -0.78100
O314        O  0.48227255  0.98184445  0.13902789    -0.79500
O315        O  0.01797719  0.93084075  0.96525446    -0.79300
O316        O  0.01984084  0.98275050  0.86266619    -0.78000
Zn317      Zn  0.47606012  0.52230025  0.94824770     1.55700
O318        O  0.48410553  0.93007906  0.03483779    -0.79400
Cd319      Cd  0.02606575  0.97566712  0.94846583     1.59700
Cd320      Cd  0.02429606  0.52525724  0.05481217     1.59600
O321        O  0.07016049  0.98558698  0.96741325    -0.79300
O322        O  0.49998869  0.49945196  0.99997902    -1.89900
Cd323      Cd  0.47554248  0.97440674  0.05289710     1.59900
O324        O  0.06900234  0.51789713  0.03738625    -0.79300
O325        O  0.43127834  0.98204926  0.03448205    -0.78000
C326        C  0.49806964  0.58122020  0.99926470     0.84600
C327        C  0.50242130  0.49905339  0.83683826     0.84200
O328        O  0.43272633  0.51247950  0.96419391    -0.76900
C329        C  0.00192458  0.91705303  0.00003459     0.85000
O330        O  0.48291772  0.56602311  0.96529359    -0.77000
C331        C  0.08301595  0.50142248  0.00365671     0.85200
C332        C  0.00025610  0.49999411  0.16699210     0.85500
O333        O  0.01722690  0.51791719  0.14057207    -0.79400
O334        O  0.48413902  0.51807659  0.36496859    -0.76900
C335        C  0.42033756  0.50157279  0.50276706     0.84100
O336        O  0.01920970  0.57032106  0.53934080    -0.78100
O337        O  0.48511398  0.98320766  0.63866363    -0.79500
O338        O  0.01840290  0.93221953  0.46665531    -0.79300
O339        O  0.01852109  0.98271034  0.36233094    -0.78000
Zn340      Zn  0.47807312  0.52585211  0.44994858     1.55700
O341        O  0.48664289  0.93201471  0.53386581    -0.79400
Cd342      Cd  0.02638599  0.97670269  0.44781340     1.59700
Cd343      Cd  0.02736156  0.52593689  0.55538243     1.59600
O344        O  0.07086864  0.98640836  0.46293755    -0.79300
O345        O  0.50204812  0.50191385  0.49998914    -1.89900
Cd346      Cd  0.47764691  0.97635594  0.55279834     1.59900
O347        O  0.07170722  0.51801763  0.53633445    -0.79300
O348        O  0.43317068  0.98491530  0.53686618    -0.78000
C349        C  0.50384199  0.58355154  0.50058821     0.84600
C350        C  0.50095715  0.50090998  0.33683779     0.84200
O351        O  0.43461162  0.51776458  0.46901342    -0.76900
C352        C  0.00207126  0.91874477  0.50138617     0.85000
O353        O  0.48785135  0.56930499  0.46647231    -0.77000
C354        C  0.08473025  0.00219648  0.49791158     0.85200
C355        C  0.00230091  0.00120792  0.66546369     0.85500
O356        O  0.02036630  0.51832448  0.64114938    -0.79400
N357        N  0.28366098  0.50413430  0.05621454    -0.35100
N358        N  0.28311195  0.49408227  0.94295943    -0.55600
N359        N  0.21772864  0.49530564  0.94546385    -0.35100
N360        N  0.21838456  0.50815896  0.05884477    -0.55600
C361        C  0.31295424  0.50776291  0.04491551     0.28500
C362        C  0.27879793  0.51559444  0.10597939     0.28500
C363        C  0.22345344  0.49793859  0.89213107     0.28500
C364        C  0.18914691  0.50316584  0.95391253     0.28500
C365        C  0.31219293  0.48897171  0.95082234     0.37100
C366        C  0.27734146  0.48554168  0.89188271     0.37100
C367        C  0.22395338  0.50729680  0.11215687     0.37100
C368        C  0.18907294  0.50215142  0.05348605     0.37100
C369        C  0.32689267  0.52156915  0.08823226    -0.20300
C370        C  0.30529202  0.52656675  0.12681123    -0.20300
C371        C  0.19814258  0.50737514  0.86626237    -0.20300
C372        C  0.17640808  0.51048558  0.90530385    -0.20300
C373        C  0.32505912  0.47715857  0.90441912    -0.21400
C374        C  0.30291818  0.47498143  0.86693550    -0.21400
C375        C  0.19798130  0.50109428  0.14085893    -0.21400
C376        C  0.17582151  0.49798882  0.10359304    -0.21400
C377        C  0.32754870  0.49739049  0.99781906    -0.16700
C378        C  0.25189618  0.51320622  0.13543012    -0.16700
C379        C  0.17403525  0.50227638  0.00401770    -0.16700
C380        C  0.25025752  0.49022946  0.86571890    -0.16700
H381        H  0.35024117  0.52706288  0.09199684     0.16200
H382        H  0.30880175  0.53648535  0.16629878     0.16200
H383        H  0.19546181  0.51123433  0.82354276     0.16200
H384        H  0.15382193  0.51730193  0.89866981     0.16200
H385        H  0.34807037  0.47140644  0.89788074     0.14500
H386        H  0.30550033  0.46720172  0.82563170     0.14400
H387        H  0.19521032  0.49906340  0.18413937     0.14500
H388        H  0.15265975  0.49324390  0.11233733     0.14400
H389        H  0.26860267  0.49102115  0.03489811     0.27700
H390        H  0.23147867  0.48544032  0.97323071     0.27700
N391        N  0.28427377  0.49633237  0.55753512    -0.35100
N392        N  0.28582739  0.50609146  0.44431649    -0.55600
N393        N  0.22050662  0.50648701  0.44408330    -0.35100
N394        N  0.21888892  0.49373039  0.55696031    -0.55600
C395        C  0.31353481  0.49208479  0.54754990     0.28500
C396        C  0.27819226  0.48558201  0.60705065     0.28500
C397        C  0.22680142  0.50387635  0.39088869     0.28500
C398        C  0.19151126  0.49905593  0.45085357     0.28500
C399        C  0.31502462  0.51050899  0.45385996     0.37100
C400        C  0.28117062  0.51520413  0.39358754     0.37100
C401        C  0.22356635  0.49434861  0.61059611     0.37100
C402        C  0.18990684  0.49993241  0.55041582     0.37100
C403        C  0.32620417  0.47854791  0.59146882    -0.20300
C404        C  0.30386704  0.47445232  0.62909899    -0.20300
C405        C  0.20148674  0.49469064  0.36348143    -0.20300
C406        C  0.17913081  0.49184728  0.40140351    -0.20300
C407        C  0.32908366  0.52233850  0.40879502    -0.21400
C408        C  0.30757447  0.52536711  0.37052373    -0.21400
C409        C  0.19731133  0.50040141  0.63827311    -0.21400
C410        C  0.17592097  0.50379924  0.60002968    -0.21400
C411        C  0.32929797  0.50183166  0.50130428    -0.16700
C412        C  0.25092910  0.48850017  0.63508953    -0.16700
C413        C  0.17574230  0.50041553  0.50018569    -0.16700
C414        C  0.25416201  0.51155546  0.36601360    -0.16700
H415        H  0.34922411  0.47270448  0.59629875     0.16200
H416        H  0.30635448  0.46495322  0.66871124     0.16200
H417        H  0.19920656  0.49086420  0.32047703     0.16200
H418        H  0.15636678  0.48533901  0.39349246     0.16200
H419        H  0.35242421  0.52772331  0.40372062     0.14500
H420        H  0.31107606  0.53351405  0.32996161     0.14400
H421        H  0.19385475  0.50218111  0.68151364     0.14500
H422        H  0.15277926  0.50856336  0.60782445     0.14400
H423        H  0.27010291  0.50939657  0.53555166     0.27700
H424        H  0.23423588  0.51627417  0.47286796     0.27700
C425        C  0.26451838  0.51225452  0.77814014    -0.11800
C426        C  0.25062827  0.48916574  0.80655414     0.10400
C427        C  0.23674956  0.96801834  0.77674075    -0.11800
C428        C  0.23692376  0.96805433  0.72054421    -0.11800
C429        C  0.25162756  0.48781841  0.69425284     0.10400
C430        C  0.26501278  0.51157872  0.72209793    -0.11800
H431        H  0.27476122  0.53078532  0.79947793     0.14300
H432        H  0.22618320  0.94982822  0.79815877     0.14300
H433        H  0.22643205  0.94992541  0.69850447     0.14300
H434        H  0.27544987  0.52971265  0.70029851     0.14300
C435        C  0.26907555  0.98893369  0.21994299    -0.11800
C436        C  0.25371845  0.51429285  0.19458817     0.10400
C437        C  0.24028482  0.53713823  0.22452632    -0.11800
C438        C  0.24085083  0.53666090  0.28076398    -0.11800
C439        C  0.25498964  0.51344314  0.30690758     0.10400
C440        C  0.26993424  0.98885956  0.27593858    -0.11800
H441        H  0.27970836  0.97128529  0.19716259     0.14300
H442        H  0.22901853  0.55486673  0.20434316     0.14300
H443        H  0.22997855  0.55400318  0.30393184     0.14300
H444        H  0.28113908  0.97113044  0.29625328     0.14300
C445        C  0.14361912  0.50165179  0.49921264    -0.11700
C446        C  0.11687308  0.50253105  0.49932154    -0.13300
C447        C  0.38838762  0.50192520  0.50254418    -0.11700
C448        C  0.36156310  0.50198607  0.50204469    -0.13300
C449        C  0.14178090  0.50223990  0.00452293    -0.11700
C450        C  0.11495764  0.50196557  0.00433968    -0.13300
C451        C  0.35975004  0.49674538  0.99707851    -0.11700
C452        C  0.38653830  0.49667735  0.99750291    -0.13300
C453        C  0.00284874  0.49990578  0.77839580    -0.11700
C454        C  0.00292974  0.50033216  0.72799649    -0.13300
C455        C  0.00118760  0.50017338  0.27835109    -0.11700
C456        C  0.00063298  0.50002060  0.22791698    -0.13300
C457        C  0.00226605  0.88676727  0.50203572    -0.11700
C458        C  0.00229826  0.85992573  0.50274930    -0.13300
C459        C  0.50542791  0.64225509  0.49779899    -0.11700
C460        C  0.50458057  0.61545718  0.49888088    -0.13300
C461        C  0.00471103  0.73217286  0.77999603    -0.11800
C462        C  0.48308038  0.74714125  0.80450436     0.10400
C463        C  0.46393353  0.76509042  0.77529977    -0.11800
C464        C  0.46674210  0.76667450  0.71922226    -0.11800
C465        C  0.48869917  0.75030549  0.69210946     0.10400
C466        C  0.00597484  0.73350471  0.72402447    -0.11800
H467        H  0.02159011  0.72018270  0.80117525     0.14300
H468        H  0.44743554  0.77837304  0.79612999     0.14300
H469        H  0.45208903  0.78080147  0.69701126     0.14300
H470        H  0.02365762  0.72226887  0.70235559     0.14300
C471        C  0.03860070  0.76221117  0.22269970    -0.11800
C472        C  0.51382470  0.74817252  0.19127372     0.10400
C473        C  0.49231741  0.73310653  0.22212406    -0.11800
C474        C  0.49403445  0.73339024  0.27808606    -0.11800
C475        C  0.51733825  0.74865781  0.30365639     0.10400
C476        C  0.03921490  0.76225461  0.27904920    -0.11800
H477        H  0.05629945  0.77314096  0.20023687     0.14300
H478        H  0.47390636  0.72168932  0.20278771     0.14300
H479        H  0.47695258  0.72216162  0.30163354     0.14300
H480        H  0.05735966  0.77324645  0.29989565     0.14300
C481        C  0.00226411  0.88508035  0.00030701    -0.11700
C482        C  0.00187748  0.85824761  0.00143766    -0.13300
C483        C  0.49503826  0.63987099  0.99669919    -0.11700
C484        C  0.49643058  0.61310197  0.99773252    -0.13300
N485        N  0.99935440  0.21692010  0.05754605    -0.35100
N486        N  0.98638484  0.21630944  0.94481818    -0.55600
N487        N  0.49241626  0.28101350  0.94364353    -0.35100
N488        N  0.50213375  0.28185905  0.05687262    -0.55600
C489        C  0.00387955  0.18790131  0.04569183     0.28500
C490        C  0.51048814  0.22253268  0.10587503     0.28500
C491        C  0.98870715  0.27543770  0.89129250     0.28500
C492        C  0.50035875  0.30985567  0.95129800     0.28500
C493        C  0.98236946  0.18702686  0.95411408     0.37100
C494        C  0.97685202  0.22110568  0.89434240     0.37100
C495        C  0.50039958  0.27681057  0.11028858     0.37100
C496        C  0.49674301  0.31102999  0.05053739     0.37100
C497        C  0.01951417  0.17503781  0.08702937    -0.20300
C498        C  0.52305149  0.19727648  0.12694139    -0.20300
C499        C  0.99744975  0.30079494  0.86358253    -0.20300
C500        C  0.50932776  0.32213692  0.90270189    -0.20300
C501        C  0.96991341  0.17312353  0.90943305    -0.21400
C502        C  0.96646922  0.19475467  0.87142682    -0.21400
C503        C  0.49405707  0.30294623  0.13813108    -0.21400
C504        C  0.49194027  0.32471928  0.10014243    -0.21400
C505        C  0.99288726  0.17245832  0.00001700    -0.16700
C506        C  0.50674157  0.24948590  0.13442378    -0.16700
C507        C  0.49836309  0.32555721  0.00066145    -0.16700
C508        C  0.98097892  0.24798909  0.86641919    -0.16700
H509        H  0.02627506  0.15216408  0.08984658     0.16200
H510        H  0.53312681  0.19498094  0.16611218     0.16200
H511        H  0.00021783  0.30329058  0.82038509     0.16200
H512        H  0.51668461  0.34473349  0.89555183     0.16200
H513        H  0.96480365  0.14973539  0.90412834     0.14500
H514        H  0.95816792  0.19134261  0.83094577     0.14400
H515        H  0.49166952  0.30613417  0.18135190     0.14500
H516        H  0.48764907  0.34794359  0.10810313     0.14400
H517        H  0.98529571  0.23112336  0.03767311     0.27700
H518        H  0.48157232  0.26733500  0.97131895     0.27700
N519        N  0.99881798  0.21851686  0.55697662    -0.35100
N520        N  0.99773968  0.28355529  0.55829502    -0.55600
N521        N  0.01319995  0.28342508  0.44500980    -0.35100
N522        N  0.01197114  0.21818498  0.44415350    -0.55600
C523        C  0.98651156  0.22400263  0.60591116     0.28500
C524        C  0.99406238  0.18940473  0.54550633     0.28500
C525        C  0.00537832  0.31210227  0.45270904     0.28500
C526        C  0.01109642  0.27739470  0.39158030     0.28500
C527        C  0.99716295  0.27836354  0.61186872     0.37100
C528        C  0.00458691  0.31266765  0.55258277     0.37100
C529        C  0.01553513  0.18893830  0.45306536     0.37100
C530        C  0.02172442  0.22320391  0.39342126     0.37100
C531        C  0.97374625  0.19810936  0.62595000    -0.20300
C532        C  0.97853143  0.17623241  0.58776489    -0.20300
C533        C  0.99880302  0.32462179  0.40352088    -0.20300
C534        C  0.00221674  0.30266776  0.36494858    -0.20300
C535        C  0.00347270  0.30433678  0.64038697    -0.21400
C536        C  0.00804977  0.32614242  0.60273405    -0.21400
C537        C  0.02777856  0.17526378  0.40778500    -0.21400
C538        C  0.03165352  0.19701628  0.36985430    -0.21400
C539        C  0.98942781  0.25086530  0.63533205    -0.16700
C540        C  0.00512403  0.17418396  0.49956297    -0.16700
C541        C  0.01804840  0.25008382  0.36590979    -0.16700
C542        C  0.00531568  0.32745168  0.50275122    -0.16500
H543        H  0.96276023  0.19514470  0.66467180     0.16200
H544        H  0.97182550  0.15316666  0.59118452     0.16200
H545        H  0.99207688  0.34716836  0.39621794     0.16200
H546        H  0.99866016  0.30513020  0.32208979     0.16200
H547        H  0.00436841  0.30734014  0.68377825     0.14500
H548        H  0.01310196  0.34926831  0.61125547     0.14400
H549        H  0.03252305  0.15194993  0.40209512     0.14500
H550        H  0.03996292  0.19378777  0.32903287     0.14400
H551        H  0.01311286  0.23287030  0.53648177     0.27700
H552        H  0.02223766  0.26963698  0.47370261     0.27700
O553        O  0.98425751  0.01605429  0.86489889    -0.76900
C554        C  0.91871969  0.99685453  0.99940097     0.84100
O555        O  0.51567420  0.06865592  0.03617853    -0.78100
O556        O  0.98304734  0.48207222  0.14092365    -0.79500
O557        O  0.51614502  0.43014377  0.96465349    -0.79300
O558        O  0.51995324  0.48205880  0.86227907    -0.78000
Zn559      Zn  0.97617989  0.02278284  0.94919905     1.55700
O560        O  0.98470571  0.43026127  0.03660773    -0.79400
Cd561      Cd  0.52538335  0.47476580  0.94827336     1.59700
Cd562      Cd  0.52447209  0.02443180  0.05346924     1.59600
O563        O  0.56947058  0.48362389  0.96829488    -0.79300
O564        O  0.00035980  0.99986604  0.00050863    -1.89900
Cd565      Cd  0.97583715  0.47456084  0.05491105     1.59900
O566        O  0.56908009  0.01606755  0.03717056    -0.79300
O567        O  0.93131245  0.48157381  0.03682734    -0.78000
C568        C  0.99775459  0.08161402  0.00099470     0.84600
C569        C  0.00212570  0.99967120  0.83749688     0.84200
O570        O  0.93292861  0.01280288  0.96525306    -0.76900
C571        C  0.49996079  0.41660399  0.99953575     0.85000
O572        O  0.98286440  0.06647081  0.96657289    -0.77000
C573        C  0.58290953  0.99951032  0.00332308     0.85200
C574        C  0.49947299  0.99967592  0.16529066     0.85500
O575        O  0.51673579  0.01739288  0.13906528    -0.79400
O576        O  0.98462804  0.01770688  0.36553360    -0.76900
C577        C  0.92045120  0.00237426  0.50365379     0.84100
O578        O  0.51848945  0.07065645  0.53767596    -0.78100
O579        O  0.98522648  0.48342785  0.64071148    -0.79500
O580        O  0.51907533  0.43304909  0.46429800    -0.79300
O581        O  0.51877891  0.48383213  0.36129555    -0.78000
Zn582      Zn  0.97842965  0.02561757  0.45046036     1.55700
O583        O  0.98661141  0.43188315  0.53672260    -0.79400
Cd584      Cd  0.52670444  0.47761716  0.44654280     1.59700
Cd585      Cd  0.52680642  0.02631570  0.55364513     1.59600
O586        O  0.57113985  0.48739502  0.46196083    -0.79300
O587        O  0.00204732  0.00156546  0.50085312    -1.89900
Cd588      Cd  0.97781060  0.47633254  0.55492829     1.59900
O589        O  0.57122694  0.01878375  0.53469175    -0.79300
O590        O  0.93336572  0.48485195  0.53853942    -0.78000
C591        C  0.00396147  0.08324129  0.50149297     0.84600
C592        C  0.00113580  0.00014241  0.33760687     0.84200
O593        O  0.93494620  0.01810672  0.46951249    -0.76900
C594        C  0.50302643  0.41922837  0.49895872     0.85000
O595        O  0.98817644  0.06900840  0.46707175    -0.77000
C596        C  0.58479515  0.50302458  0.49742811     0.85200
C597        C  0.50266566  0.50095691  0.66469313     0.85500
O598        O  0.51983799  0.01851567  0.63931615    -0.79400
N599        N  0.78379601  0.99800481  0.05641194    -0.35100
N600        N  0.78335293  0.99395593  0.94256056    -0.55600
N601        N  0.71765034  0.99368460  0.94521216    -0.35100
N602        N  0.71821567  0.00025472  0.05926489    -0.55600
C603        C  0.81287609  0.00347199  0.04559796     0.28500
C604        C  0.77842825  0.00777282  0.10712422     0.28500
C605        C  0.72336504  0.99894688  0.89265338     0.28500
C606        C  0.68887301  0.00055267  0.95465778     0.28500
C607        C  0.81261268  0.98925091  0.94927564     0.37100
C608        C  0.77768937  0.98800348  0.89034274     0.37100
C609        C  0.72383838  0.99759438  0.11220309     0.37100
C610        C  0.68886314  0.99478411  0.05346971     0.37100
C611        C  0.82619119  0.01659248  0.09018879    -0.20300
C612        C  0.80438582  0.01941303  0.12906597    -0.20300
C613        C  0.69783198  0.00888458  0.86812674    -0.20300
C614        C  0.67600339  0.00976412  0.90730499    -0.20300
C615        C  0.82571087  0.98034040  0.90101203    -0.21400
C616        C  0.80352105  0.97955728  0.86350631    -0.21400
C617        C  0.69790191  0.99055417  0.14037207    -0.21400
C618        C  0.67565278  0.98888222  0.10301903    -0.21400
C619        C  0.82781342  0.99567237  0.99734316    -0.16700
C620        C  0.75153371  0.00379303  0.13590363    -0.16700
C621        C  0.67378071  0.99745527  0.00445386    -0.16700
C622        C  0.75036623  0.99316167  0.86536426    -0.16700
H623        H  0.84921776  0.02328427  0.09437854     0.16200
H624        H  0.80741313  0.02852304  0.16931103     0.16200
H625        H  0.69509066  0.01460056  0.82615830     0.16200
H626        H  0.65328109  0.01640280  0.90156924     0.16200
H627        H  0.84888525  0.97566747  0.89336450     0.14500
H628        H  0.80622731  0.97411716  0.82104211     0.14400
H629        H  0.69519544  0.98744464  0.18344153     0.14500
H630        H  0.65242887  0.98425541  0.11139976     0.14400
H631        H  0.76929717  0.98496529  0.03363969     0.27700
H632        H  0.73170616  0.98287226  0.97121940     0.27700
N633        N  0.78434295  0.00325897  0.55870296    -0.35100
N634        N  0.78632199  0.00709922  0.44468571    -0.55600
N635        N  0.72075500  0.00785996  0.44331480    -0.35100
N636        N  0.71872679  0.00138413  0.55705436    -0.55600
C637        C  0.81349801  0.99784112  0.54984390     0.28500
C638        C  0.77775063  0.99441600  0.60923073     0.28500
C639        C  0.72741773  0.00242096  0.39100911     0.28500
C640        C  0.69170723  0.00069328  0.45060178     0.28500
C641        C  0.81558850  0.01140645  0.45359785     0.37100
C642        C  0.78191728  0.01349688  0.39251215     0.37100
C643        C  0.72323261  0.00410091  0.61048891     0.37100
C644        C  0.68967224  0.00677158  0.54943751     0.37100
C645        C  0.82563394  0.98571069  0.59559928    -0.20300
C646        C  0.80302755  0.98350357  0.63314906    -0.20300
C647        C  0.70230064  0.99178314  0.36462261    -0.20300
C648        C  0.67969205  0.99084324  0.40229973    -0.20300
C649        C  0.82996169  0.02039882  0.40670795    -0.21400
C650        C  0.80855270  0.02180807  0.36789253    -0.21400
C651        C  0.69684941  0.01088846  0.63712501    -0.21400
C652        C  0.67550751  0.01251345  0.59828652    -0.21400
C653        C  0.82958127  0.00492933  0.50244286    -0.16700
C654        C  0.75028314  0.99841862  0.63597962    -0.16700
C655        C  0.67563092  0.00430073  0.49923194    -0.16700
C656        C  0.75488514  0.00888247  0.36553466    -0.16700
H657        H  0.84842759  0.97935553  0.60148612     0.16200
H658        H  0.80507765  0.97524391  0.67379186     0.16200
H659        H  0.70033987  0.98569235  0.32237590     0.16200
H660        H  0.65701816  0.98380217  0.39497005     0.16200
H661        H  0.85342898  0.02490015  0.40085313     0.14500
H662        H  0.81228363  0.02756597  0.32601551     0.14400
H663        H  0.69326298  0.01395177  0.68012692     0.14500
H664        H  0.65223852  0.01702961  0.60522912     0.14400
H665        H  0.77053232  0.01566227  0.53474090     0.27700
H666        H  0.73435467  0.01921361  0.47043404     0.27700
C667        C  0.76195962  0.01942501  0.78070499    -0.11800
C668        C  0.75035417  0.99429034  0.80650093     0.10400
C669        C  0.73803602  0.46385785  0.77637712    -0.11800
C670        C  0.73838007  0.46405554  0.72009349    -0.11800
C671        C  0.75006221  0.99693256  0.69481500     0.10400
C672        C  0.76182465  0.02073840  0.72477774    -0.11800
H673        H  0.77100478  0.03788078  0.80395630     0.14300
H674        H  0.72849483  0.44502595  0.79748018     0.14300
H675        H  0.72900692  0.44542767  0.69776693     0.14300
H676        H  0.77082180  0.04018523  0.70475146     0.14300
C677        C  0.76598041  0.48922415  0.22160791    -0.11800
C678        C  0.75282283  0.00570525  0.19477463     0.10400
C679        C  0.74034366  0.02986398  0.22238545    -0.11800
C680        C  0.74166765  0.03135540  0.27839593    -0.11800
C681        C  0.75552994  0.00872516  0.30652234     0.10400
C682        C  0.76738191  0.49029613  0.27752543    -0.11800
H683        H  0.77422139  0.46993247  0.19997489     0.14300
H684        H  0.72951586  0.04727578  0.20055799     0.14300
H685        H  0.73159345  0.04977422  0.29992532     0.14300
H686        H  0.77642835  0.47171517  0.29892236     0.14300
C687        C  0.64344871  0.00429633  0.49776792    -0.11700
C688        C  0.61665970  0.00422974  0.49753366    -0.13300
C689        C  0.88856595  0.00342367  0.50373391    -0.11700
C690        C  0.86178540  0.00420446  0.50338307    -0.13300
C691        C  0.64157704  0.99837881  0.00529965    -0.11700
C692        C  0.61479629  0.99911027  0.00483774    -0.13300
C693        C  0.86004011  0.99584830  0.99676657    -0.11700
C694        C  0.88683372  0.99621151  0.99765352    -0.13300
C695        C  0.50281957  0.99960896  0.77644632    -0.11700
C696        C  0.50274269  0.00010625  0.72604982    -0.13300
C697        C  0.50012206  0.00017678  0.27661568    -0.11700
C698        C  0.49957286  0.99983526  0.22619744    -0.13300
C699        C  0.50367279  0.38729265  0.49903876    -0.11700
C700        C  0.50424487  0.36048158  0.49945048    -0.13300
C701        C  0.00472491  0.14194893  0.49959131    -0.11700
C702        C  0.00435085  0.11514706  0.50027674    -0.13300
C703        C  0.51154792  0.23205598  0.77752511    -0.11800
C704        C  0.98126931  0.24665820  0.80690976     0.10400
C705        C  0.95884205  0.25996404  0.77722050    -0.11800
C706        C  0.96125806  0.26130651  0.72100150    -0.11800
C707        C  0.98612286  0.24938438  0.69449392     0.10400
C708        C  0.51359833  0.23409316  0.72172284    -0.11800
H709        H  0.52775822  0.21931281  0.79895767     0.14300
H710        H  0.93995330  0.26979366  0.79769424     0.14300
H711        H  0.94403650  0.27182625  0.69821909     0.14300
H712        H  0.53108288  0.22248112  0.70018757     0.14300
C713        C  0.53215825  0.26367768  0.21961315    -0.11800
C714        C  0.01379101  0.24861169  0.19387752     0.10400
C715        C  0.99155294  0.23474238  0.22493643    -0.11800
C716        C  0.99343282  0.23478575  0.28094026    -0.11800
C717        C  0.01758117  0.24867711  0.30643107     0.10400
C718        C  0.53326118  0.26378423  0.27570530    -0.11800
H719        H  0.54909865  0.27546053  0.19665516     0.14300
H720        H  0.97249745  0.22440262  0.20573316     0.14300
H721        H  0.97580427  0.22450262  0.30459628     0.14300
H722        H  0.55104613  0.27565568  0.29604477     0.14300
C723        C  0.49966246  0.38464086  0.99940060    -0.11700
C724        C  0.49915965  0.35781487  0.00001526    -0.13300
C725        C  0.99414058  0.14022201  0.99933350    -0.11700
C726        C  0.99583121  0.11347472  0.99999244    -0.13300
N727        N  0.00204706  0.71699807  0.05882840    -0.35100
N728        N  0.98932623  0.71623873  0.94616952    -0.55600
N729        N  0.48827051  0.78138553  0.94303210    -0.35100
N730        N  0.50287234  0.78169801  0.05552594    -0.55600
C731        C  0.00585408  0.68777561  0.04770454     0.28500
C732        C  0.51271595  0.72231998  0.10303356     0.28500
C733        C  0.99148366  0.77546617  0.89283603     0.28500
C734        C  0.49706264  0.81001317  0.95041074     0.28500
C735        C  0.98520839  0.68695809  0.95542019     0.37100
C736        C  0.97967482  0.72108898  0.89580509     0.37100
C737        C  0.50337870  0.77666650  0.10905541     0.37100
C738        C  0.49717527  0.81086216  0.04997970     0.37100
C739        C  0.02043461  0.67467772  0.09006123    -0.20300
C740        C  0.52539337  0.69673306  0.12244302    -0.20300
C741        C  0.00039567  0.80073758  0.86500590    -0.20300
C742        C  0.50495759  0.82233599  0.90127864    -0.20300
C743        C  0.97279801  0.67308030  0.91068796    -0.21400
C744        C  0.96926099  0.69474668  0.87285035    -0.21400
C745        C  0.49810654  0.80279130  0.13766534    -0.21400
C746        C  0.49436317  0.82453508  0.10011023    -0.21400
C747        C  0.99504940  0.67237844  0.00180712    -0.16700
C748        C  0.51039148  0.74924960  0.13233036    -0.16700
C749        C  0.49706977  0.82549966  0.00015453    -0.16700
C750        C  0.98340129  0.74809538  0.86807715    -0.16700
H751        H  0.02636390  0.65160435  0.09370977     0.16200
H752        H  0.53657344  0.69407527  0.16049605     0.16200
H753        H  0.00327746  0.80316467  0.82182198     0.16200
H754        H  0.51276636  0.84476132  0.89387050     0.16200
H755        H  0.96755118  0.64972060  0.90538953     0.14500
H756        H  0.96076355  0.69136503  0.83250144     0.14400
H757        H  0.49742224  0.80599377  0.18104899     0.14500
H758        H  0.49036370  0.84775558  0.10867295     0.14400
H759        H  0.98867179  0.73149184  0.03816909     0.27700
H760        H  0.47821651  0.76776216  0.97175574     0.27700
N761        N  0.99673519  0.71869550  0.55879011    -0.35100
N762        N  0.99476339  0.78391050  0.55940015    -0.55600
N763        N  0.01008492  0.78331180  0.44637543    -0.35100
N764        N  0.00936940  0.71795469  0.44606224    -0.55600
C765        C  0.98445981  0.72427954  0.60768620     0.28500
C766        C  0.99242460  0.68943169  0.54795329     0.28500
C767        C  0.00229373  0.81202815  0.45358331     0.28500
C768        C  0.00804844  0.77706212  0.39304312     0.28500
C769        C  0.99415189  0.77891789  0.61302659     0.37100
C770        C  0.00118579  0.81310372  0.55337682     0.37100
C771        C  0.01347919  0.68882339  0.45533074     0.37100
C772        C  0.01912852  0.72295912  0.39534810     0.37100
C773        C  0.97212992  0.69829758  0.62828049    -0.20300
C774        C  0.97722840  0.67626274  0.59057281    -0.20300
C775        C  0.99570440  0.82431719  0.40421889    -0.20300
C776        C  0.99912125  0.80218826  0.36600976    -0.20300
C777        C  0.99990839  0.80514562  0.64122963    -0.21400
C778        C  0.00416631  0.82686690  0.60335626    -0.21400
C779        C  0.02596233  0.67519108  0.41024286    -0.21400
C780        C  0.02951321  0.69686692  0.37209776    -0.21400
C781        C  0.98720650  0.75128155  0.63682012    -0.16700
C782        C  0.00353145  0.67412159  0.50216143    -0.16700
C783        C  0.01542557  0.74979022  0.36772564    -0.16700
C784        C  0.00229878  0.82763199  0.50331481    -0.16500
H785        H  0.96126743  0.69538052  0.66712811     0.16200
H786        H  0.97092413  0.65311719  0.59451543     0.16200
H787        H  0.98899228  0.84683106  0.39656958     0.16200
H788        H  0.99562183  0.80445611  0.32309354     0.16200
H789        H  0.00079064  0.80839811  0.68455679     0.14500
H790        H  0.00882382  0.85009805  0.61162841     0.14400
H791        H  0.03120097  0.65196716  0.40490702     0.14500
H792        H  0.03803281  0.69365633  0.33141476     0.14400
H793        H  0.01078033  0.73315849  0.53799402     0.27700
H794        H  0.01924720  0.76969625  0.47520600     0.27700
O795        O  0.98477724  0.51591238  0.86649519    -0.76900
C796        C  0.91854121  0.49640400  0.00027458     0.84100
O797        O  0.51450919  0.56931594  0.03449452    -0.78100
O798        O  0.98278731  0.98188881  0.13895818    -0.79500
O799        O  0.51629032  0.92996978  0.96482805    -0.79300
O800        O  0.51999895  0.98180067  0.86259071    -0.78000
Zn801      Zn  0.97625698  0.52258910  0.95080558     1.55700
O802        O  0.98550436  0.93033362  0.03480939    -0.79400
Cd803      Cd  0.52561843  0.97453842  0.94849532     1.59700
Cd804      Cd  0.52380108  0.52520400  0.05254502     1.59600
O805        O  0.56975679  0.98315494  0.96825106    -0.79300
O806        O  0.00032652  0.49964056  0.00226686    -1.89900
Cd807      Cd  0.97604829  0.97449565  0.05288987     1.59900
O808        O  0.56853103  0.51710061  0.03631331    -0.79300
O809        O  0.93159529  0.98150745  0.03506512    -0.78000
C810        C  0.99803455  0.58139653  0.00292463     0.84600
C811        C  0.00254977  0.49933901  0.83924047     0.84200
O812        O  0.93289489  0.51216836  0.96600007    -0.76900
C813        C  0.50002329  0.91650318  0.99967167     0.85000
O814        O  0.98288639  0.56636184  0.96866575    -0.77000
C815        C  0.58250706  0.50037434  0.00292111     0.85200
C816        C  0.49925142  0.50031526  0.16470152     0.85500
O817        O  0.51608786  0.51836643  0.13829752    -0.79400
O818        O  0.98540673  0.51772125  0.36716907    -0.76900
C819        C  0.92071757  0.50131676  0.50424422     0.84100
O820        O  0.51934034  0.57069898  0.53604054    -0.78100
O821        O  0.98462251  0.98396280  0.63912137    -0.79500
O822        O  0.51974306  0.93293750  0.46531516    -0.79300
O823        O  0.51902837  0.98348551  0.36208420    -0.78000
Zn824      Zn  0.97877167  0.52535513  0.45210409     1.55700
O825        O  0.98556080  0.93234173  0.53562910    -0.79400
Cd826      Cd  0.52698879  0.97753640  0.44740808     1.59700
Cd827      Cd  0.52707038  0.52632573  0.55284847     1.59600
O828        O  0.57130560  0.98778001  0.46295072    -0.79300
O829        O  0.00243509  0.50137647  0.50253730    -1.89900
Cd830      Cd  0.97730606  0.97683752  0.55350706     1.59900
O831        O  0.57143141  0.51821879  0.53393932    -0.79300
O832        O  0.93303840  0.98571145  0.53763297    -0.78000
C833        C  0.00361130  0.58313762  0.50400296     0.84600
C834        C  0.00204571  0.50027775  0.33924429     0.84200
O835        O  0.93522905  0.51721677  0.47035786    -0.76900
C836        C  0.50353751  0.91894661  0.49950453     0.85000
O837        O  0.98801811  0.56883152  0.46937055    -0.77000
C838        C  0.58476340  0.00364809  0.49832696     0.85200
C839        C  0.50255335  0.00064402  0.66520103     0.85500
O840        O  0.51998865  0.51877379  0.63872066    -0.79400
N841        N  0.78356095  0.50113996  0.05537316    -0.35100
N842        N  0.78285834  0.49178901  0.94173270    -0.55600
N843        N  0.71717826  0.49230646  0.94464046    -0.35100
N844        N  0.71813355  0.50491647  0.05819172    -0.55600
C845        C  0.81292029  0.50455453  0.04425512     0.28500
C846        C  0.77881483  0.51217391  0.10551666     0.28500
C847        C  0.72269979  0.49488902  0.89119291     0.28500
C848        C  0.68843923  0.49964731  0.95328952     0.28500
C849        C  0.81214876  0.48736299  0.94900527     0.37100
C850        C  0.77713353  0.48410670  0.89016216     0.37100
C851        C  0.72362020  0.50539544  0.11159512     0.37100
C852        C  0.68860353  0.50006162  0.05318990     0.37100
C853        C  0.82699122  0.51759944  0.08817268    -0.20300
C854        C  0.80545551  0.52245755  0.12682226    -0.20300
C855        C  0.69704832  0.50353906  0.86546297    -0.20300
C856        C  0.67538024  0.50634528  0.90464819    -0.20300
C857        C  0.82517664  0.47687912  0.90171699    -0.21400
C858        C  0.80296559  0.47483103  0.86432912    -0.21400
C859        C  0.69738384  0.50128463  0.14069895    -0.21400
C860        C  0.67516234  0.49800506  0.10361503    -0.21400
C861        C  0.82750347  0.49506325  0.99649654    -0.16700
C862        C  0.75173689  0.51067017  0.13464520    -0.16700
C863        C  0.67352248  0.49949628  0.00370258    -0.16700
C864        C  0.74975242  0.48825429  0.86447157    -0.16700
H865        H  0.85037265  0.52287299  0.09217254     0.16200
H866        H  0.80908231  0.53205080  0.16653157     0.16200
H867        H  0.69413807  0.50726606  0.82275673     0.16200
H868        H  0.65266775  0.51278139  0.89810676     0.16200
H869        H  0.84832661  0.47189368  0.89458263     0.14500
H870        H  0.80564674  0.46792527  0.82254652     0.14400
H871        H  0.69447867  0.50085848  0.18414006     0.14500
H872        H  0.65180582  0.49469431  0.11271316     0.14400
H873        H  0.76829531  0.48868638  0.03339056     0.27700
H874        H  0.73132366  0.48308596  0.97242050     0.27700
N875        N  0.78421424  0.49757994  0.55678028    -0.35100
N876        N  0.78637494  0.50823774  0.44383483    -0.55600
N877        N  0.72082421  0.50936959  0.44255275    -0.35100
N878        N  0.71870540  0.49567164  0.55510388    -0.55600
C879        C  0.81353864  0.49331125  0.54737954     0.28500
C880        C  0.77782275  0.48693815  0.60626521     0.28500
C881        C  0.72736915  0.50714093  0.38938755     0.28500
C882        C  0.69171770  0.50209414  0.44866244     0.28500
C883        C  0.81571361  0.51153762  0.45340063     0.37100
C884        C  0.78212999  0.51704253  0.39277663     0.37100
C885        C  0.72309870  0.49568124  0.60883956     0.37100
C886        C  0.68969082  0.50168225  0.54828518     0.37100
C887        C  0.82592674  0.47989346  0.59170224    -0.20300
C888        C  0.80337253  0.47589082  0.62892053    -0.20300
C889        C  0.70204238  0.49860795  0.36133172    -0.20300
C890        C  0.67950023  0.49560188  0.39878645    -0.20300
C891        C  0.83026482  0.52238801  0.40800046    -0.21400
C892        C  0.80894726  0.52588405  0.36950160    -0.21400
C893        C  0.69664627  0.50118018  0.63626680    -0.21400
C894        C  0.67542532  0.50484968  0.59779854    -0.21400
C895        C  0.82962650  0.50273308  0.50120512    -0.16700
C896        C  0.75034174  0.48970430  0.63370338    -0.16700
C897        C  0.67572230  0.50255957  0.49786777    -0.16700
C898        C  0.75509309  0.51407144  0.36501118    -0.16700
H899        H  0.84890086  0.47402438  0.59705106     0.16200
H900        H  0.80563261  0.46645648  0.66863728     0.16200
H901        H  0.69990424  0.49512615  0.31821146     0.16200
H902        H  0.65674761  0.48930256  0.39029615     0.16200
H903        H  0.85380229  0.52673199  0.40280023     0.14500
H904        H  0.81283021  0.53339300  0.32862277     0.14400
H905        H  0.69294942  0.50234249  0.67950791     0.14500
H906        H  0.65219935  0.50930606  0.60538313     0.14400
H907        H  0.77012274  0.51050552  0.53438784     0.27700
H908        H  0.73461880  0.51851526  0.47189363     0.27700
C909        C  0.76227026  0.51238637  0.77787580    -0.11800
C910        C  0.75000389  0.48804670  0.80521461     0.10400
C911        C  0.73848902  0.97050473  0.77659615    -0.11800
C912        C  0.73836064  0.97181648  0.72057743    -0.11800
C913        C  0.75064633  0.48847912  0.69286026     0.10400
C914        C  0.76260123  0.51259047  0.72181542    -0.11800
H915        H  0.77143201  0.53117572  0.80007042     0.14300
H916        H  0.72945906  0.95110012  0.79669135     0.14300
H917        H  0.72929053  0.95339791  0.69727646     0.14300
H918        H  0.77191822  0.53159448  0.70087036     0.14300
C919        C  0.76698431  0.98330523  0.22291677    -0.11800
C920        C  0.75351134  0.51272784  0.19370466     0.10400
C921        C  0.74290468  0.53765101  0.22184104    -0.11800
C922        C  0.74420573  0.53867382  0.27804900    -0.11800
C923        C  0.75627542  0.51485882  0.30584443     0.10400
C924        C  0.76831890  0.98480055  0.27880014    -0.11800
H925        H  0.77670570  0.96464765  0.20151911     0.14300
H926        H  0.73334899  0.55591855  0.20032855     0.14300
H927        H  0.73536589  0.55759602  0.29994625     0.14300
H928        H  0.77880568  0.96715778  0.30058429     0.14300
C929        C  0.64351402  0.50299953  0.49655638    -0.11700
C930        C  0.61671416  0.50326159  0.49652128    -0.13300
C931        C  0.88874540  0.50191416  0.50352877    -0.11700
C932        C  0.86191644  0.50235891  0.50245579    -0.13300
C933        C  0.64125878  0.50006335  0.00448060    -0.11700
C934        C  0.61443931  0.50035774  0.00425854    -0.13300
C935        C  0.85980071  0.49479881  0.99585391    -0.11700
C936        C  0.88661985  0.49531794  0.99749912    -0.13300
C937        C  0.50280762  0.49974914  0.77596921    -0.11700
C938        C  0.50284837  0.50038459  0.72556442    -0.13300
C939        C  0.49990349  0.50077358  0.27600261    -0.11700
C940        C  0.49939698  0.50053093  0.22559163    -0.13300
C941        C  0.50448116  0.88698693  0.49935967    -0.11700
C942        C  0.50547103  0.86016956  0.49921943    -0.13300
C943        C  0.00361297  0.64187577  0.50259828    -0.11700
C944        C  0.00361368  0.61506439  0.50318648    -0.13300
C945        C  0.50452783  0.73030062  0.77713348    -0.11800
C946        C  0.98234534  0.74706373  0.80864669     0.10400
C947        C  0.96080226  0.76280617  0.78081353    -0.11800
C948        C  0.96204331  0.76410206  0.72455672    -0.11800
C949        C  0.98487756  0.74971992  0.69610824     0.10400
C950        C  0.50732523  0.73188300  0.72130592    -0.11800
H951        H  0.51963301  0.71659602  0.79924250     0.14300
H952        H  0.94357491  0.77455323  0.80276258     0.14300
H953        H  0.94557125  0.77655321  0.70324201     0.14300
H954        H  0.52428478  0.71904015  0.70077113     0.14300
C955        C  0.53753797  0.76295759  0.21666349    -0.11800
C956        C  0.01475905  0.74863625  0.19559639     0.10400
C957        C  0.99204140  0.73442468  0.22500053    -0.11800
C958        C  0.99272461  0.73435343  0.28109310    -0.11800
C959        C  0.01611785  0.74852349  0.30829622     0.10400
C960        C  0.53926756  0.76323659  0.27287172    -0.11800
H961        H  0.55425352  0.77462588  0.19299042     0.14300
H962        H  0.97354266  0.72388267  0.20440653     0.14300
H963        H  0.97476239  0.72376810  0.30344988     0.14300
H964        H  0.55732219  0.77509245  0.29243515     0.14300
C965        C  0.49947420  0.88455489  0.99940062    -0.11700
C966        C  0.49850348  0.85774043  0.99981604    -0.13300
C967        C  0.99546679  0.64009530  0.00155646    -0.11700
C968        C  0.99645711  0.61329472  0.00208025    -0.13300
loop_ 
_geom_bond_atom_site_label_1 
_geom_bond_atom_site_label_2 
_geom_bond_distance 
_geom_bond_site_symmetry_2 
_ccdc_geom_bond_type 
N1           H33   1.040       .  S
N1            C5   1.354       .  A
N1          C490   1.346       .  A
N2            C9   1.351       .  A
N2           C10   1.345       .  A
N3           H34   1.039       .  S
N3            C8   1.355       .  A
N3          C491   1.351       .  A
N4           C11   1.350       .  A
N4           C12   1.352   1_455  A
C5           C13   1.386       .  A
C5           C21   1.409   1_554  A
C6          N485   1.349   1_455  A
C6           C22   1.411       .  A
C6           C14   1.387       .  A
C7          N487   1.348       .  A
C7           C15   1.390       .  A
C7           C24   1.413       .  A
C8           C23   1.411   1_556  A
C8           C16   1.385   1_655  A
C9           C21   1.407       .  A
C9           C17   1.385       .  A
C10          C24   1.410       .  A
C10          C18   1.388       .  A
C11          C19   1.388       .  A
C11          C22   1.412       .  A
C12          C20   1.385       .  A
C12          C23   1.409       .  A
C13         C498   1.375       .  A
C13          H25   1.082       .  S
C14         C497   1.375       .  A
C14          H26   1.082       .  S
C15         C500   1.373       .  A
C15          H27   1.082       .  S
C16         C499   1.374   1_455  A
C16          H28   1.082       .  S
C17          C18   1.375       .  A
C17          H29   1.082       .  S
C18          H30   1.082       .  S
C19          C20   1.372   1_455  A
C19          H31   1.082       .  S
C20          H32   1.082       .  S
C21         C241   1.453       .  S
C22         C714   1.475       .  S
C23         C240   1.455       .  S
C24         C220   1.467       .  S
N35          H67   1.040       .  S
N35          C40   1.354       .  A
N35          C39   1.346       .  A
N36          C43   1.346       .  A
N36          C44   1.351       .  A
N37          H68   1.040       .  S
N37          C42   1.348       .  A
N37          C41   1.355       .  A
N38          C45   1.351       .  A
N38          C46   1.344       .  A
C39          C47   1.389       .  A
C39          C55   1.409       .  A
C40          C56   1.408       .  A
C40          C48   1.385       .  A
C41          C49   1.385       .  A
C41          C58   1.409       .  A
C42          C57   1.413       .  A
C42          C50   1.390       .  A
C43          C55   1.410       .  A
C43          C51   1.388       .  A
C44          C58   1.406       .  A
C44          C52   1.384       .  A
C45          C53   1.384       .  A
C45          C56   1.405       .  A
C46          C54   1.389       .  A
C46          C57   1.408       .  A
C47          C48   1.374       .  A
C47          H59   1.083       .  S
C48          H60   1.082       .  S
C49          C50   1.375       .  A
C49          H61   1.082       .  S
C50          H62   1.082       .  S
C51          C52   1.374       .  A
C51          H63   1.082       .  S
C52          H64   1.082       .  S
C53          C54   1.373       .  A
C53          H65   1.082       .  S
C54          H66   1.082       .  S
C55         C223   1.466       .  S
C56         C217   1.453       .  S
C57         C233   1.464       .  S
C58         C700   1.454       .  S
O69          C85   1.283   1_545  A
O69         Zn75   2.134       .  S
C70         C210   1.438       .  S
C70          O86   1.277   1_565  A
C70         O325   1.278   1_556  A
O71         C568   1.279   1_455  A
O71         Cd78   2.092       .  S
O72         C816   1.285       .  A
O72         Cd81   2.176       .  S
O73          C87   1.278   1_556  A
O73         Cd77   2.090       .  S
O74         C811   1.283       .  A
O74         Cd77   2.172       .  S
Zn75         O86   2.030       .  S
Zn75         O88   2.029       .  S
Zn75         O80   1.989   1_546  S
O76         C571   1.277   1_554  A
O76         Cd81   2.083       .  S
Cd77         O79   2.086       .  S
Cd77        O806   2.039   1_556  S
Cd78         O82   2.087       .  S
Cd78         O91   2.174       .  S
Cd78        O564   2.039   1_545  S
O79         C331   1.278   1_556  A
O80        Cd803   2.038   1_554  S
O80        Cd562   2.038   1_565  S
O80        Cd323   2.038       .  S
Cd81         O83   2.082       .  S
Cd81        O322   2.039   1_554  S
O82          C89   1.278       .  A
O83         C312   1.278   1_554  A
C84         C242   1.439   1_554  S
C84          O88   1.277   1_554  A
C84         O555   1.278       .  A
C85         C695   1.507       .  S
C85         O800   1.284       .  A
C87         C239   1.440       .  S
C87         O560   1.278   1_455  A
C89         C208   1.441       .  S
C89         O321   1.279   1_544  A
C90         C214   1.509       .  S
C90          O91   1.284   1_665  A
C90         O798   1.285       .  A
O92         C108   1.284       .  A
O92         Zn98   2.144       .  S
C93         C205   1.440       .  S
C93         O109   1.277       .  A
C93         O348   1.279   1_545  A
O94         C591   1.278       .  A
O94        Cd101   2.083       .  S
O95         C597   1.284       .  A
O95        Cd104   2.172       .  S
O96         C110   1.278       .  A
O96        Cd100   2.086       .  S
O97         C834   1.283       .  A
O97        Cd100   2.169       .  S
Zn98        O109   2.034       .  S
Zn98        O111   2.039       .  S
Zn98        O103   1.991       .  S
O99         C594   1.278       .  A
O99        Cd104   2.086       .  S
Cd100       O102   2.079       .  S
Cd100       O829   2.037       .  S
Cd101       O105   2.087       .  S
Cd101       O114   2.176       .  S
Cd101       O587   2.040       .  S
O102        C112   1.277       .  A
O103       Cd826   2.037   1_545  S
O103       Cd585   2.039       .  S
O103       Cd346   2.038   1_545  S
Cd104       O106   2.087       .  S
Cd104       O345   2.037       .  S
O105        C354   1.278       .  A
O106        C335   1.278       .  A
C107        C218   1.439       .  S
C107        O111   1.278       .  A
C107        O578   1.277       .  A
C108        C697   1.508       .  S
C108        O823   1.283   1_545  A
C110        C215   1.442       .  S
C110        O583   1.279   1_455  A
C112        C446   1.436       .  S
C112        O347   1.278       .  A
C113        C454   1.507       .  S
C113        O579   1.284   1_455  A
C113        O356   1.284       .  A
O114        C355   1.285       .  A
N115        H147   1.038   1_545  S
N115        C120   1.346       .  A
N115        C119   1.354       .  A
N116        C123   1.351       .  A
N116        C124   1.345       .  A
N117        H148   1.039       .  S
N117        C122   1.355   1_565  A
N117        C121   1.348       .  A
N118        C125   1.347       .  A
N118        C126   1.353       .  A
C119        C127   1.386       .  A
C119        C135   1.409   1_544  A
C120        C136   1.410       .  A
C120        C128   1.389       .  A
C121        C129   1.390   1_565  A
C121        C138   1.412       .  A
C122        C137   1.409   1_556  A
C122        C130   1.385       .  A
C123        C135   1.407       .  A
C123        C131   1.384       .  A
C124        C138   1.409       .  A
C124        C132   1.389       .  A
C125        C133   1.389   1_545  A
C125        C136   1.411       .  A
C126        C134   1.384   1_545  A
C126        C137   1.407       .  A
C127        C128   1.374       .  A
C127        H139   1.082       .  S
C128        H140   1.083       .  S
C129        C130   1.375       .  A
C129        H141   1.082       .  S
C130        H142   1.082       .  S
C131        C132   1.373       .  A
C131        H143   1.082       .  S
C132        H144   1.083       .  S
C133        C134   1.373       .  A
C133        H145   1.082       .  S
C134        H146   1.082       .  S
C135        C209   1.453       .  S
C136        C194   1.466       .  S
C137        C207   1.455       .  S
C138        C184   1.462       .  S
N149        H181   1.039   1_565  S
N149        C154   1.346       .  A
N149        C153   1.355       .  A
N150        C157   1.351       .  A
N150        C158   1.345       .  A
N151        H182   1.040       .  S
N151        C156   1.354   1_545  A
N151        C155   1.347       .  A
N152        C159   1.346       .  A
N152        C160   1.351   1_565  A
C153        C161   1.386       .  A
C153        C169   1.410   1_565  A
C154        C170   1.410       .  A
C154        C162   1.389       .  A
C155        C163   1.390   1_545  A
C155        C172   1.412       .  A
C156        C171   1.407   1_565  A
C156        C164   1.384       .  A
C157        C169   1.407       .  A
C157        C165   1.385       .  A
C158        C172   1.409       .  A
C158        C166   1.388       .  A
C159        C167   1.389   1_565  A
C159        C170   1.409       .  A
C160        C168   1.384       .  A
C160        C171   1.405       .  A
C161        C162   1.375       .  A
C161        H173   1.082       .  S
C162        H174   1.083       .  S
C163        C164   1.376       .  A
C163        H175   1.083       .  S
C164        H176   1.082       .  S
C165        C166   1.374       .  A
C165        H177   1.082       .  S
C166        H178   1.082       .  S
C167        C168   1.372       .  A
C167        H179   1.082       .  S
C168        H180   1.082       .  S
C169        C206   1.454       .  S
C170        C187   1.462       .  S
C171        C203   1.452       .  S
C172        C197   1.464       .  S
C183        C184   1.399   1_545  A
C183        C188   1.386       .  A
C183        H189   1.083       .  S
C184        C427   1.400       .  A
C185        C186   1.393       .  A
C185        C426   1.400       .  A
C185        H190   1.083       .  S
C186        C429   1.401       .  A
C186        H191   1.083       .  S
C187        C188   1.399   1_565  A
C187        C428   1.401       .  A
C188        H192   1.083       .  S
C193        C198   1.387       .  A
C193        C436   1.400       .  A
C193        H199   1.083       .  S
C194        C195   1.401       .  A
C194        C435   1.401   1_545  A
C195        C196   1.391       .  A
C195        H200   1.083       .  S
C196        C197   1.401       .  A
C196        H201   1.083       .  S
C197        C440   1.399   1_545  A
C198        C439   1.399       .  A
C198        H202   1.083       .  S
C203        C204   1.208       .  T
C204        C354   1.439       .  S
C205        C206   1.209       .  T
C207        C208   1.210       .  T
C209        C210   1.208       .  T
C211        C569   1.506   1_545  S
C211        C212   1.248       .  T
C212        C355   1.506       .  S
C213        C592   1.509       .  S
C213        C214   1.249   1_445  T
C215        C216   1.210       .  T
C216        C542   1.456       .  S
C217        C218   1.208       .  T
C219        C224   1.390       .  A
C219        C704   1.401   1_455  A
C219        H225   1.083       .  S
C220        C221   1.402       .  A
C220        C703   1.400       .  A
C221        C222   1.391       .  A
C221        H226   1.083       .  S
C222        C223   1.400       .  A
C222        H227   1.083       .  S
C223        C708   1.401       .  A
C224        C707   1.400   1_455  A
C224        H228   1.083       .  S
C229        C234   1.397       .  A
C229        C714   1.403       .  A
C229        H235   1.083       .  S
C230        C231   1.400       .  A
C230        C713   1.401       .  A
C230        C506   1.464       .  S
C231        C232   1.387       .  A
C231        H236   1.083       .  S
C232        C233   1.400       .  A
C232        H237   1.083       .  S
C233        C718   1.400       .  A
C234        C717   1.402       .  A
C234        H238   1.083       .  S
C239        C240   1.209   1_455  T
C241        C242   1.208       .  T
N243        H275   1.039       .  S
N243        C732   1.348       .  A
N243        C247   1.354       .  A
N244        C251   1.352       .  A
N244        C252   1.347       .  A
N245        H276   1.039       .  S
N245        C250   1.355       .  A
N245        C733   1.351       .  A
N246        C253   1.350       .  A
N246        C254   1.353       .  A
C247        C255   1.387       .  A
C247        C263   1.411   1_554  A
C248        N727   1.349       .  A
C248        C264   1.412       .  A
C248        C256   1.388       .  A
C249        N729   1.350       .  A
C249        C257   1.390       .  A
C249        C266   1.416       .  A
C250        C265   1.410   1_656  A
C250        C258   1.385   1_655  A
C251        C263   1.410       .  A
C251        C259   1.385       .  A
C252        C266   1.412       .  A
C252        C260   1.388       .  A
C253        C261   1.388       .  A
C253        C264   1.414       .  A
C254        C262   1.384       .  A
C254        C265   1.409       .  A
C255        C740   1.375       .  A
C255        H267   1.082       .  S
C256        C739   1.375       .  A
C256        H268   1.083       .  S
C257        C742   1.373       .  A
C257        H269   1.082       .  S
C258        C741   1.373       .  A
C258        H270   1.082       .  S
C259        C260   1.375       .  A
C259        H271   1.082       .  S
C260        H272   1.082       .  S
C261        C262   1.372       .  A
C261        H273   1.082       .  S
C262        H274   1.082   1_455  S
C263        C483   1.455       .  S
C264        C956   1.474       .  S
C265        C482   1.456       .  S
C266        C462   1.476       .  S
N277        H309   1.040       .  S
N277        C282   1.354       .  A
N277        C281   1.348       .  A
N278        C285   1.349       .  A
N278        C286   1.352       .  A
N279        H310   1.040       .  S
N279        C284   1.351       .  A
N279        C283   1.355       .  A
N280        C287   1.351       .  A
N280        C288   1.346       .  A
C281        C289   1.389       .  A
C281        C297   1.411       .  A
C282        C298   1.409       .  A
C282        C290   1.386       .  A
C283        C291   1.385       .  A
C283        C300   1.411       .  A
C284        C299   1.416       .  A
C284        C292   1.390       .  A
C285        C297   1.413       .  A
C285        C293   1.388       .  A
C286        C300   1.408       .  A
C286        C294   1.385       .  A
C287        C295   1.385       .  A
C287        C298   1.407       .  A
C288        C296   1.389       .  A
C288        C299   1.410       .  A
C289        C290   1.374       .  A
C289        H301   1.082       .  S
C290        H302   1.082       .  S
C291        C292   1.375       .  A
C291        H303   1.082       .  S
C292        H304   1.082       .  S
C293        C294   1.374       .  A
C293        H305   1.082       .  S
C294        H306   1.082       .  S
C295        C296   1.373       .  A
C295        H307   1.082       .  S
C296        H308   1.083       .  S
C297        C465   1.476       .  S
C298        C459   1.453       .  S
C299        C475   1.471       .  S
C300        C942   1.455       .  S
O311        C327   1.283       .  A
O311       Zn317   2.135       .  S
C312        C452   1.437       .  S
C312        O328   1.277       .  A
O313        C810   1.279   1_455  A
O313       Cd320   2.089       .  S
O314        C574   1.285       .  A
O314       Cd323   2.179       .  S
O315        C329   1.279   1_556  A
O315       Cd319   2.093       .  S
O316        C569   1.284       .  A
O316       Cd319   2.174       .  S
Zn317       O328   2.031       .  S
Zn317       O330   2.030       .  S
Zn317       O322   1.990       .  S
O318        C813   1.277   1_554  A
O318       Cd323   2.082       .  S
Cd319       O321   2.088       .  S
Cd319       O564   2.039   1_556  S
Cd320       O324   2.086       .  S
Cd320       O333   2.172       .  S
Cd320       O806   2.038       .  S
O322       Cd561   2.038       .  S
O322       Cd804   2.038   1_556  S
Cd323       O325   2.086       .  S
O324        C331   1.278       .  A
C326        C484   1.441       .  S
C326        O797   1.279   1_556  A
C326        O330   1.276       .  A
C327        C937   1.508       .  S
C327        O558   1.284       .  A
C329        C481   1.441       .  S
C329        O802   1.278   1_455  A
C331        C450   1.440       .  S
C332        C456   1.509       .  S
C332        O556   1.285   1_455  A
C332        O333   1.284       .  A
O334        C350   1.284       .  A
O334       Zn340   2.144       .  S
C335        C447   1.440       .  S
C335        O351   1.278       .  A
O336        C833   1.277       .  A
O336       Cd343   2.083       .  S
O337        C839   1.284   1_565  A
O337       Cd346   2.174       .  S
O338        C352   1.278       .  A
O338       Cd342   2.089       .  S
O339        C592   1.283   1_565  A
O339       Cd342   2.171       .  S
Zn340       O351   2.038       .  S
Zn340       O353   2.039       .  S
Zn340       O345   1.991       .  S
O341        C836   1.279       .  A
O341       Cd346   2.091       .  S
Cd342       O344   2.083       .  S
Cd342       O587   2.037   1_565  S
Cd343       O347   2.083       .  S
Cd343       O356   2.174       .  S
Cd343       O829   2.041       .  S
O344        C354   1.277   1_565  A
O345       Cd584   2.037       .  S
O345       Cd827   2.040       .  S
Cd346       O348   2.090       .  S
C349        C460   1.439       .  S
C349        O820   1.278       .  A
C349        O353   1.278       .  A
C350        C939   1.508       .  S
C350        O581   1.282       .  A
C352        C457   1.442       .  S
C352        O825   1.278   1_455  A
C355        O821   1.283   1_445  A
N357        H389   1.038       .  S
N357        C362   1.347       .  A
N357        C361   1.354       .  A
N358        C365   1.351       .  A
N358        C366   1.345       .  A
N359        H390   1.039       .  S
N359        C364   1.354       .  A
N359        C363   1.349       .  A
N360        C367   1.348       .  A
N360        C368   1.352       .  A
C361        C369   1.386       .  A
C361        C377   1.410   1_554  A
C362        C378   1.411       .  A
C362        C370   1.389       .  A
C363        C371   1.389       .  A
C363        C380   1.412       .  A
C364        C379   1.409   1_556  A
C364        C372   1.385       .  A
C365        C377   1.406       .  A
C365        C373   1.385       .  A
C366        C380   1.409       .  A
C366        C374   1.389       .  A
C367        C375   1.389       .  A
C367        C378   1.412       .  A
C368        C376   1.384       .  A
C368        C379   1.407       .  A
C369        C370   1.375       .  A
C369        H381   1.082       .  S
C370        H382   1.083       .  S
C371        C372   1.375       .  A
C371        H383   1.082       .  S
C372        H384   1.082       .  S
C373        C374   1.373       .  A
C373        H385   1.082       .  S
C374        H386   1.083       .  S
C375        C376   1.372       .  A
C375        H387   1.082       .  S
C376        H388   1.082       .  S
C377        C451   1.452       .  S
C378        C436   1.468       .  S
C379        C449   1.454       .  S
C380        C426   1.465       .  S
N391        H423   1.038       .  S
N391        C396   1.347       .  A
N391        C395   1.355       .  A
N392        C399   1.351       .  A
N392        C400   1.346       .  A
N393        H424   1.040       .  S
N393        C398   1.353       .  A
N393        C397   1.348       .  A
N394        C401   1.347       .  A
N394        C402   1.352       .  A
C395        C403   1.386       .  A
C395        C411   1.412       .  A
C396        C412   1.411       .  A
C396        C404   1.388       .  A
C397        C405   1.390       .  A
C397        C414   1.412       .  A
C398        C413   1.407       .  A
C398        C406   1.385       .  A
C399        C411   1.408       .  A
C399        C407   1.385       .  A
C400        C414   1.409       .  A
C400        C408   1.388       .  A
C401        C409   1.389       .  A
C401        C412   1.410       .  A
C402        C410   1.384       .  A
C402        C413   1.405       .  A
C403        C404   1.375       .  A
C403        H415   1.082       .  S
C404        H416   1.083       .  S
C405        C406   1.375       .  A
C405        H417   1.082       .  S
C406        H418   1.082       .  S
C407        C408   1.373       .  A
C407        H419   1.082       .  S
C408        H420   1.082       .  S
C409        C410   1.371       .  A
C409        H421   1.082       .  S
C410        H422   1.082       .  S
C411        C448   1.454       .  S
C412        C429   1.466       .  S
C413        C445   1.450       .  S
C414        C439   1.467       .  S
C425        C426   1.399       .  A
C425        C430   1.387       .  A
C425        H431   1.083       .  S
C427        C428   1.391       .  A
C427        H432   1.083       .  S
C428        H433   1.083       .  S
C429        C430   1.400       .  A
C430        H434   1.084       .  S
C435        C440   1.387       .  A
C435        H441   1.083       .  S
C436        C437   1.402       .  A
C437        C438   1.393       .  A
C437        H442   1.083       .  S
C438        C439   1.402       .  A
C438        H443   1.083       .  S
C440        H444   1.083       .  S
C445        C446   1.207       .  T
C447        C448   1.209       .  T
C449        C450   1.209       .  T
C451        C452   1.208       .  T
C453        C811   1.507       .  S
C453        C454   1.248       .  T
C455        C834   1.509       .  S
C455        C456   1.249       .  T
C457        C458   1.210       .  T
C458        C784   1.456       .  S
C459        C460   1.208       .  T
C461        C946   1.400   1_455  A
C461        C466   1.388       .  A
C461        H467   1.083       .  S
C462        C945   1.401       .  A
C462        C463   1.404       .  A
C463        C464   1.395       .  A
C463        H468   1.083       .  S
C464        C465   1.402       .  A
C464        H469   1.083       .  S
C465        C950   1.402       .  A
C466        C949   1.401   1_455  A
C466        H470   1.084       .  S
C471        C956   1.403       .  A
C471        C476   1.396       .  A
C471        H477   1.083       .  S
C472        C955   1.403       .  A
C472        C473   1.400       .  A
C472        C748   1.471       .  S
C473        C474   1.389       .  A
C473        H478   1.083       .  S
C474        C475   1.401       .  A
C474        H479   1.083       .  S
C475        C960   1.402       .  A
C476        C959   1.402       .  A
C476        H480   1.083       .  S
C481        C482   1.210       .  T
C483        C484   1.209       .  T
N485        H517   1.039       .  S
N485        C489   1.355   1_655  A
N486        C493   1.352       .  A
N486        C494   1.347       .  A
N487        H518   1.040       .  S
N487        C492   1.355       .  A
N488        C495   1.346       .  A
N488        C496   1.352       .  A
C489        C497   1.387       .  A
C489        C505   1.412   1_455  A
C490        C506   1.409       .  A
C490        C498   1.389       .  A
C491        C499   1.390       .  A
C491        C508   1.416       .  A
C492        C507   1.407   1_556  A
C492        C500   1.384       .  A
C493        C505   1.410   1_556  A
C493        C501   1.386       .  A
C494        C508   1.411       .  A
C494        C502   1.388       .  A
C495        C503   1.389       .  A
C495        C506   1.410       .  A
C496        C504   1.384       .  A
C496        C507   1.405       .  A
C497        H509   1.082       .  S
C498        H510   1.083       .  S
C499        H511   1.082   1_655  S
C500        H512   1.082       .  S
C501        C502   1.375       .  A
C501        H513   1.082       .  S
C502        H514   1.083       .  S
C503        C504   1.372       .  A
C503        H515   1.082       .  S
C504        H516   1.082       .  S
C505        C725   1.455   1_554  S
C507        C724   1.454       .  S
C508        C704   1.474       .  S
N519        H551   1.039   1_655  S
N519        C524   1.354       .  A
N519        C523   1.348       .  A
N520        C527   1.350       .  A
N520        C528   1.352   1_655  A
N521        H552   1.040       .  S
N521        C526   1.351       .  A
N521        C525   1.355       .  A
N522        C529   1.351       .  A
N522        C530   1.346       .  A
C523        C531   1.388       .  A
C523        C539   1.411       .  A
C524        C540   1.411   1_655  A
C524        C532   1.387       .  A
C525        C533   1.385   1_455  A
C525        C542   1.412       .  A
C526        C541   1.416       .  A
C526        C534   1.389       .  A
C527        C539   1.412       .  A
C527        C535   1.387   1_655  A
C528        C542   1.409       .  A
C528        C536   1.385       .  A
C529        C537   1.385       .  A
C529        C540   1.409       .  A
C530        C538   1.388       .  A
C530        C541   1.410       .  A
C531        C532   1.375       .  A
C531        H543   1.083       .  S
C532        H544   1.082       .  S
C533        C534   1.376   1_655  A
C533        H545   1.082       .  S
C534        H546   1.082   1_455  S
C535        C536   1.374       .  A
C535        H547   1.082       .  S
C536        H548   1.082       .  S
C537        C538   1.374       .  A
C537        H549   1.082       .  S
C538        H550   1.083       .  S
C539        C707   1.473       .  S
C540        C701   1.453       .  S
C541        C717   1.474       .  S
O553        C569   1.283   1_645  A
O553       Zn559   2.133       .  S
C554        C694   1.438       .  S
C554        O570   1.277   1_565  A
C554        O809   1.278   1_556  A
O555       Cd562   2.088       .  S
O556       Cd565   2.180       .  S
O557        C571   1.279       .  A
O557       Cd561   2.091       .  S
O558       Cd561   2.176       .  S
Zn559       O570   2.030       .  S
Zn559       O572   2.029       .  S
Zn559       O564   1.991   1_646  S
O560       Cd565   2.085       .  S
Cd561       O563   2.085       .  S
Cd562       O566   2.084       .  S
Cd562       O575   2.170       .  S
O563        C815   1.278   1_556  A
O564       Cd807   2.039   1_455  S
Cd565       O567   2.090       .  S
Cd565       O806   2.040   1_655  S
O566        C573   1.278   1_545  A
O567        C796   1.279       .  A
C568        C726   1.440   1_554  S
C568        O572   1.276   1_554  A
C571        C723   1.440       .  S
C573        C692   1.438       .  S
C573        O805   1.278   1_554  A
C574        C698   1.508       .  S
C574        O575   1.283   1_565  A
O576        C592   1.284   1_655  A
O576       Zn582   2.144       .  S
C577        C689   1.438       .  S
C577        O593   1.277       .  A
C577        O832   1.278   1_545  A
O578       Cd585   2.082       .  S
O579       Cd588   2.173       .  S
O580        C594   1.278       .  A
O580       Cd584   2.084       .  S
O581       Cd584   2.167       .  S
Zn582       O593   2.035       .  S
Zn582       O595   2.036       .  S
Zn582       O587   1.991   1_655  S
O583       Cd588   2.090       .  S
Cd584       O586   2.083       .  S
Cd585       O589   2.082       .  S
Cd585       O598   2.173       .  S
O586        C596   1.277       .  A
O587       Cd830   2.037   1_445  S
Cd588       O590   2.090       .  S
Cd588       O829   2.038   1_655  S
O589        C838   1.277       .  A
O590        C819   1.279       .  A
C591        C702   1.438       .  S
C591        O595   1.278   1_455  A
C594        C699   1.440       .  S
C596        C930   1.438       .  S
C596        O831   1.278       .  A
C597        C938   1.508       .  S
C597        O840   1.285       .  A
O598        C839   1.284       .  A
N599        H631   1.039       .  S
N599        C604   1.346   1_565  A
N599        C603   1.354   1_565  A
N600        C607   1.351       .  A
N600        C608   1.344       .  A
N601        H632   1.039       .  S
N601        C606   1.355   1_565  A
N601        C605   1.347       .  A
N602        C609   1.345   1_545  A
N602        C610   1.351   1_545  A
C603        C611   1.385       .  A
C603        C619   1.408   1_544  A
C604        C620   1.409       .  A
C604        C612   1.389       .  A
C605        C613   1.390   1_565  A
C605        C622   1.411       .  A
C606        C621   1.408   1_546  A
C606        C614   1.385       .  A
C607        C619   1.405       .  A
C607        C615   1.384       .  A
C608        C622   1.408       .  A
C608        C616   1.389       .  A
C609        C617   1.389       .  A
C609        C620   1.409   1_565  A
C610        C618   1.384       .  A
C610        C621   1.405       .  A
C611        C612   1.373       .  A
C611        H623   1.082       .  S
C612        H624   1.083       .  S
C613        C614   1.374       .  A
C613        H625   1.083       .  S
C614        H626   1.082       .  S
C615        C616   1.373       .  A
C615        H627   1.082       .  S
C616        H628   1.083       .  S
C617        C618   1.373       .  A
C617        H629   1.082       .  S
C618        H630   1.082       .  S
C619        C693   1.452       .  S
C620        C678   1.461       .  S
C621        C691   1.452       .  S
C622        C668   1.459       .  S
N633        H665   1.039       .  S
N633        C638   1.346   1_545  A
N633        C637   1.355   1_545  A
N634        C641   1.351       .  A
N634        C642   1.345       .  A
N635        H666   1.040       .  S
N635        C640   1.354       .  A
N635        C639   1.346       .  A
N636        C643   1.345       .  A
N636        C644   1.351       .  A
C637        C645   1.386       .  A
C637        C653   1.410   1_565  A
C638        C654   1.410       .  A
C638        C646   1.389       .  A
C639        C647   1.390   1_545  A
C639        C656   1.411       .  A
C640        C655   1.407       .  A
C640        C648   1.384   1_545  A
C641        C653   1.406       .  A
C641        C649   1.385       .  A
C642        C656   1.408       .  A
C642        C650   1.388       .  A
C643        C651   1.389       .  A
C643        C654   1.408   1_545  A
C644        C652   1.384       .  A
C644        C655   1.404       .  A
C645        C646   1.374       .  A
C645        H657   1.082       .  S
C646        H658   1.083       .  S
C647        C648   1.374       .  A
C647        H659   1.083       .  S
C648        H660   1.082       .  S
C649        C650   1.373       .  A
C649        H661   1.082       .  S
C650        H662   1.082       .  S
C651        C652   1.372       .  A
C651        H663   1.082       .  S
C652        H664   1.082       .  S
C653        C690   1.453       .  S
C654        C671   1.459       .  S
C655        C687   1.451       .  S
C656        C681   1.461       .  S
C667        C668   1.399   1_545  A
C667        C672   1.387       .  A
C667        H673   1.083       .  S
C668        C911   1.399       .  A
C669        C910   1.401       .  A
C669        C670   1.394       .  A
C669        H674   1.083       .  S
C670        C913   1.401       .  A
C670        H675   1.083       .  S
C671        C912   1.399       .  A
C671        C672   1.399   1_565  A
C672        H676   1.083       .  S
C677        C920   1.400       .  A
C677        C682   1.387       .  A
C677        H683   1.083       .  S
C678        C919   1.399   1_545  A
C678        C679   1.400       .  A
C679        C680   1.390       .  A
C679        H684   1.083       .  S
C680        C681   1.400       .  A
C680        H685   1.083       .  S
C681        C924   1.399   1_545  A
C682        C923   1.399       .  A
C682        H686   1.083       .  S
C687        C688   1.207       .  T
C688        C838   1.437       .  S
C689        C690   1.208       .  T
C691        C692   1.208       .  T
C693        C694   1.208       .  T
C695        C696   1.248   1_565  T
C696        C839   1.507       .  S
C697        C698   1.249   1_545  T
C699        C700   1.209       .  T
C701        C702   1.208       .  T
C703        C708   1.388       .  A
C703        H709   1.083       .  S
C704        C705   1.403       .  A
C705        C706   1.397       .  A
C705        H710   1.083       .  S
C706        C707   1.402       .  A
C706        H711   1.083       .  S
C708        H712   1.084       .  S
C713        C718   1.390       .  A
C713        H719   1.083       .  S
C714        C715   1.401   1_455  A
C715        C716   1.390       .  A
C715        H720   1.083       .  S
C716        C717   1.401   1_655  A
C716        H721   1.083       .  S
C718        H722   1.083       .  S
C723        C724   1.209   1_556  T
C725        C726   1.209       .  T
N727        H759   1.038   1_455  S
N727        C731   1.355       .  A
N728        C735   1.352       .  A
N728        C736   1.347       .  A
N729        H760   1.041       .  S
N729        C734   1.355       .  A
N730        C737   1.348       .  A
N730        C738   1.352       .  A
C731        C739   1.387       .  A
C731        C747   1.412   1_455  A
C732        C748   1.411       .  A
C732        C740   1.388       .  A
C733        C741   1.390   1_655  A
C733        C750   1.416       .  A
C734        C749   1.408   1_556  A
C734        C742   1.384       .  A
C735        C747   1.409   1_556  A
C735        C743   1.385       .  A
C736        C750   1.411       .  A
C736        C744   1.388       .  A
C737        C745   1.389       .  A
C737        C748   1.411       .  A
C738        C746   1.384       .  A
C738        C749   1.406       .  A
C739        H751   1.082       .  S
C740        H752   1.083       .  S
C741        H753   1.082       .  S
C742        H754   1.082       .  S
C743        C744   1.374       .  A
C743        H755   1.082       .  S
C744        H756   1.083       .  S
C745        C746   1.373       .  A
C745        H757   1.082       .  S
C746        H758   1.082       .  S
C747        C967   1.455       .  S
C749        C966   1.454   1_554  S
C750        C946   1.473       .  S
N761        H793   1.039   1_655  S
N761        C766   1.354       .  A
N761        C765   1.347       .  A
N762        C769   1.349       .  A
N762        C770   1.353   1_655  A
N763        H794   1.040       .  S
N763        C768   1.351       .  A
N763        C767   1.355       .  A
N764        C771   1.351       .  A
N764        C772   1.346       .  A
C765        C773   1.389       .  A
C765        C781   1.412       .  A
C766        C782   1.410   1_655  A
C766        C774   1.386       .  A
C767        C775   1.385   1_455  A
C767        C784   1.411       .  A
C768        C783   1.415       .  A
C768        C776   1.389   1_455  A
C769        C781   1.414       .  A
C769        C777   1.388       .  A
C770        C784   1.409       .  A
C770        C778   1.385       .  A
C771        C779   1.385       .  A
C771        C782   1.408       .  A
C772        C780   1.388       .  A
C772        C783   1.409       .  A
C773        C774   1.375       .  A
C773        H785   1.083       .  S
C774        H786   1.082       .  S
C775        C776   1.375       .  A
C775        H787   1.082       .  S
C776        H788   1.082       .  S
C777        C778   1.374   1_655  A
C777        H789   1.082   1_655  S
C778        H790   1.082       .  S
C779        C780   1.373       .  A
C779        H791   1.082       .  S
C780        H792   1.082       .  S
C781        C949   1.473       .  S
C782        C943   1.453       .  S
C783        C959   1.472       .  S
O795        C811   1.283   1_655  A
O795       Zn801   2.136       .  S
C796        C936   1.441   1_554  S
C796        O812   1.277   1_554  A
O797       Cd804   2.092       .  S
O798       Cd807   2.177       .  S
O799        C813   1.279       .  A
O799       Cd803   2.089       .  S
O800       Cd803   2.174       .  S
Zn801       O812   2.035       .  S
Zn801       O814   2.035       .  S
Zn801       O806   1.992   1_656  S
O802       Cd807   2.083       .  S
Cd803       O805   2.084       .  S
Cd804       O808   2.087       .  S
Cd804       O817   2.172       .  S
Cd807       O809   2.086       .  S
O808        C815   1.278       .  A
C810        C968   1.441       .  S
C810        O814   1.277   1_554  A
C813        C965   1.440       .  S
C815        C934   1.440       .  S
C816        C940   1.508       .  S
C816        O817   1.284       .  A
O818        C834   1.284   1_655  A
O818       Zn824   2.145       .  S
C819        C931   1.442       .  S
C819        O835   1.278       .  A
O820       Cd827   2.083       .  S
O821       Cd830   2.169       .  S
O822        C836   1.278       .  A
O822       Cd826   2.084       .  S
O823       Cd826   2.168       .  S
Zn824       O835   2.038       .  S
Zn824       O837   2.039       .  S
Zn824       O829   1.990   1_655  S
O825       Cd830   2.086       .  S
Cd826       O828   2.083       .  S
Cd827       O831   2.084       .  S
Cd827       O840   2.176       .  S
O828        C838   1.277   1_565  A
Cd830       O832   2.083       .  S
C833        C944   1.439       .  S
C833        O837   1.278   1_455  A
C836        C941   1.441       .  S
N841        H873   1.037       .  S
N841        C846   1.348       .  A
N841        C845   1.355       .  A
N842        C849   1.352       .  A
N842        C850   1.346       .  A
N843        H874   1.038       .  S
N843        C848   1.355       .  A
N843        C847   1.350       .  A
N844        C851   1.348       .  A
N844        C852   1.353       .  A
C845        C853   1.386       .  A
C845        C861   1.411   1_554  A
C846        C862   1.411       .  A
C846        C854   1.389       .  A
C847        C855   1.390       .  A
C847        C864   1.414       .  A
C848        C863   1.411   1_556  A
C848        C856   1.385       .  A
C849        C861   1.409       .  A
C849        C857   1.384       .  A
C850        C864   1.411       .  A
C850        C858   1.389       .  A
C851        C859   1.389       .  A
C851        C862   1.412       .  A
C852        C860   1.385       .  A
C852        C863   1.408       .  A
C853        C854   1.373       .  A
C853        H865   1.082       .  S
C854        H866   1.083       .  S
C855        C856   1.374       .  A
C855        H867   1.082       .  S
C856        H868   1.082       .  S
C857        C858   1.373       .  A
C857        H869   1.082       .  S
C858        H870   1.083       .  S
C859        C860   1.372       .  A
C859        H871   1.082       .  S
C860        H872   1.082       .  S
C861        C935   1.456       .  S
C862        C920   1.467       .  S
C863        C933   1.455       .  S
C864        C910   1.467       .  S
N875        H907   1.038       .  S
N875        C880   1.348       .  A
N875        C879   1.355       .  A
N876        C883   1.352       .  A
N876        C884   1.346       .  A
N877        H908   1.039       .  S
N877        C882   1.355       .  A
N877        C881   1.348       .  A
N878        C885   1.347       .  A
N878        C886   1.352       .  A
C879        C887   1.386       .  A
C879        C895   1.413       .  A
C880        C896   1.412       .  A
C880        C888   1.388       .  A
C881        C889   1.390       .  A
C881        C898   1.414       .  A
C882        C897   1.408       .  A
C882        C890   1.385       .  A
C883        C895   1.410       .  A
C883        C891   1.385       .  A
C884        C898   1.410       .  A
C884        C892   1.388       .  A
C885        C893   1.389       .  A
C885        C896   1.411       .  A
C886        C894   1.384       .  A
C886        C897   1.406       .  A
C887        C888   1.375       .  A
C887        H899   1.082       .  S
C888        H900   1.083       .  S
C889        C890   1.374       .  A
C889        H901   1.082       .  S
C890        H902   1.082       .  S
C891        C892   1.374       .  A
C891        H903   1.082       .  S
C892        H904   1.083       .  S
C893        C894   1.371       .  A
C893        H905   1.082       .  S
C894        H906   1.082       .  S
C895        C932   1.456       .  S
C896        C913   1.467       .  S
C897        C929   1.453       .  S
C898        C923   1.466       .  S
C909        C910   1.399       .  A
C909        C914   1.388       .  A
C909        H915   1.083       .  S
C911        C912   1.389       .  A
C911        H916   1.083       .  S
C912        H917   1.083       .  S
C913        C914   1.400       .  A
C914        H918   1.083       .  S
C919        C924   1.386       .  A
C919        H925   1.083       .  S
C920        C921   1.401       .  A
C921        C922   1.394       .  A
C921        H926   1.083       .  S
C922        C923   1.402       .  A
C922        H927   1.083       .  S
C924        H928   1.083       .  S
C929        C930   1.208       .  T
C931        C932   1.210       .  T
C933        C934   1.209       .  T
C935        C936   1.210       .  T
C937        C938   1.249       .  T
C939        C940   1.249       .  T
C941        C942   1.210       .  T
C943        C944   1.209       .  T
C945        C950   1.389       .  A
C945        H951   1.083       .  S
C946        C947   1.403       .  A
C947        C948   1.395       .  A
C947        H952   1.083       .  S
C948        C949   1.402       .  A
C948        H953   1.083       .  S
C950        H954   1.083       .  S
C955        C960   1.395       .  A
C955        H961   1.083       .  S
C956        C957   1.401   1_455  A
C957        C958   1.390       .  A
C957        H962   1.083       .  S
C958        C959   1.400   1_655  A
C958        H963   1.083       .  S
C960        H964   1.083       .  S
C965        C966   1.209       .  T
C967        C968   1.209       .  T
