geometry optimzed in LAMMPS
_audit_creation_date              2020-11-30 
_audit_creation_method            'lammps2cif' 
_symmetry_space_group_name_H-M    'P1' 
_symmetry_Int_Tables_number       1 
_symmetry_cell_setting            triclinic 
loop_ 
_symmetry_equiv_pos_as_xyz 
  x,y,z 
_cell_length_a                    28.25885553 
_cell_length_b                    27.427981973423115 
_cell_length_c                    51.5045524054762 
_cell_angle_alpha                 89.9797736171897 
_cell_angle_beta                  90.29053541083496 
_cell_angle_gamma                 79.1228375189159 
loop_ 
_atom_site_label 
_atom_site_type_symbol 
_atom_site_fract_x 
_atom_site_fract_y 
_atom_site_fract_z 
_atom_site_charge 
O1          O  0.18124073  0.18110047  0.64071144    -0.75800
C2          C  0.33062153  0.15106003  0.62719493     0.85300
O3          O  0.25446985  0.31103071  0.68275236    -0.76900
O4          O  0.34248134  0.30329027  0.60518714    -0.78400
O5          O  0.19535789  0.28228718  0.56376334    -0.78200
O6          O  0.13974108  0.22332875  0.60837221    -0.76800
Zn7        Zn  0.23822652  0.21275871  0.64707030     1.55700
O8          O  0.27514918  0.25433404  0.56298158    -0.78200
Cd9        Cd  0.17805787  0.28137972  0.60317823     1.59700
Cd10       Cd  0.24541691  0.32900333  0.64414311     1.59600
O11         O  0.13626496  0.34977641  0.61473496    -0.78200
O12         O  0.23929767  0.26835586  0.62394638    -1.88700
Cd13       Cd  0.29692403  0.25236545  0.60121080     1.59900
O14         O  0.18430912  0.38290116  0.64131071    -0.78200
O15         O  0.33630765  0.18299848  0.61005600    -0.76800
C16         C  0.25059641  0.27176873  0.69510635     0.85700
C17         C  0.14684532  0.18693994  0.62434496     0.85400
O18         O  0.29481835  0.15797789  0.64235907    -0.75800
C19         C  0.23487302  0.26858027  0.55154064     0.86200
O20         O  0.24198324  0.23313558  0.68387693    -0.75900
C21         C  0.14439848  0.38501917  0.62947760     0.86300
C22         C  0.33877515  0.34405299  0.61754666     0.86600
O23         O  0.30328743  0.35970750  0.63242939    -0.78300
C24         C  0.02402901  0.48053911  0.62448382     0.32700
C25         C  0.44952809  0.05635082  0.62204143     0.32700
C26         C  0.47933431  0.47331579  0.62131556    -0.03500
C27         C  0.00711247  0.50479380  0.65079101    -0.04300
C28         C  0.03520275  0.03255193  0.61348833    -0.04100
C29         C  0.44398320  0.51615694  0.61805273    -0.03500
C30         C  0.46679172  0.04237621  0.64991000    -0.04300
C31         C  0.99239972  0.06802062  0.60985162    -0.04100
C32         C  0.40028944  0.50052448  0.61689747    -0.29500
N33         N  0.40796939  0.45036117  0.61836735     0.17000
C34         C  0.45586275  0.43351320  0.62177540    -0.29500
H35         H  0.47185987  0.39592575  0.62733078     0.18900
C36         C  0.45473168  0.05976689  0.67452631    -0.28500
N37         N  0.98428689  0.04069547  0.69517827     0.15700
C38         C  0.01720260  0.49705275  0.67702849    -0.28500
C39         C  0.00637743  0.11290015  0.60500590    -0.28800
N40         N  0.05478789  0.10693490  0.60663728     0.16200
H41         H  0.98287926  0.14875698  0.60345962     0.18800
C42         C  0.07257528  0.05859553  0.61225666    -0.28800
H43         H  0.10958250  0.04410818  0.61774255     0.18800
H44         H  0.04409552  0.46774421  0.68527207     0.18800
H45         H  0.36502272  0.52414323  0.61733373     0.18900
H46         H  0.42694473  0.09120116  0.67947058     0.18800
O47         O  0.07504612  0.42110998  0.82918356    -0.75800
C48         C  0.41987876  0.42463245  0.84650283     0.85300
O49         O  0.98382955  0.05934232  0.77785153    -0.76900
O50         O  0.38913102  0.08766444  0.85729475    -0.78400
O51         O  0.04320581  0.02379857  0.90045036    -0.78200
O52         O  0.10237516  0.46576993  0.86002287    -0.76800
Zn53       Zn  0.00939257  0.45984443  0.81840029     1.55700
O54         O  0.45947518  0.02138150  0.90121997    -0.78200
Cd55       Cd  0.05575872  0.02821918  0.86092862     1.59700
Cd56       Cd  0.98225233  0.08276490  0.81623484     1.59600
O57         O  0.08054150  0.09213355  0.85280151    -0.78200
O58         O  0.99673639  0.02395143  0.84014681    -1.88700
Cd59       Cd  0.43888570  0.02277724  0.86253471     1.59900
O60         O  0.03332848  0.12799797  0.82061644    -0.78200
O61         O  0.40627325  0.46359136  0.86009756    -0.76800
C62         C  0.99392609  0.01597950  0.76797068     0.85700
C63         C  0.10710501  0.42742134  0.84578036     0.85400
O64         O  0.45777876  0.41895231  0.83265452    -0.75800
C65         C  0.00542033  0.02097212  0.91331698     0.86200
O66         O  0.00975987  0.47369865  0.77935590    -0.75900
C67         C  0.06919164  0.12633517  0.83594423     0.86300
C68         C  0.38496273  0.12312991  0.84097068     0.86600
O69         O  0.41555425  0.12405830  0.82285551    -0.78300
C70         C  0.28822010  0.24142454  0.82850989     0.32700
C71         C  0.21015093  0.31590153  0.83187536     0.32700
C72         C  0.29290878  0.28171528  0.84881043    -0.03500
C73         C  0.27517594  0.27232634  0.80388709    -0.04300
C74         C  0.24059719  0.22567554  0.83536558    -0.04100
C75         C  0.25193633  0.32082943  0.85070450    -0.03500
C76         C  0.23555513  0.31059760  0.80574619    -0.04300
C77         C  0.20097775  0.26376191  0.83696486    -0.04100
C78         C  0.27015009  0.36340798  0.85564915    -0.29500
N79         N  0.31866698  0.35253169  0.85706514     0.17000
C80         C  0.33290108  0.30332205  0.85267003    -0.29500
H81         H  0.36973691  0.28526886  0.84908306     0.18900
C82         C  0.22681413  0.33155537  0.78161442    -0.28500
N83         N  0.25956450  0.30614522  0.76513970     0.15700
C84         C  0.28940027  0.26997121  0.77844704    -0.28500
C85         C  0.16081414  0.24270806  0.83971817    -0.28800
N86         N  0.17525322  0.19263296  0.84005544     0.16200
H87         H  0.12387642  0.26233620  0.84079821     0.18800
C88         C  0.22390816  0.18178035  0.83752214    -0.28800
H89         H  0.24513496  0.14466166  0.83611525     0.18800
H90         H  0.31736805  0.24239244  0.76984555     0.18800
H91         H  0.25015168  0.40102576  0.85399090     0.18900
H92         H  0.19673810  0.36029165  0.77598643     0.18800
O93         O  0.03852061  0.11048600  0.13273607    -0.75800
C94         C  0.38752628  0.11762039  0.11952372     0.85300
O95         O  0.51289617  0.96959886  0.17596327    -0.76900
O96         O  0.41304557  0.44795734  0.10413257    -0.78400
O97         O  0.04565673  0.01093470  0.05593477    -0.78200
O98         O  0.09172741  0.07047696  0.10452614    -0.76800
Zn99       Zn  0.48870270  0.07520738  0.14054454     1.55700
O100        O  0.45539726  0.01916849  0.05533586    -0.78200
Cd101      Cd  0.06217255  0.00854528  0.09526736     1.59700
Cd102      Cd  0.51338197  0.44778050  0.14082455     1.59600
O103        O  0.10659711  0.45252237  0.09906563    -0.78200
O104        O  0.49795769  0.01858314  0.11662124    -1.88700
Cd105      Cd  0.43879244  0.01889890  0.09483946     1.59900
O106        O  0.07860863  0.41836196  0.13367976    -0.78200
O107        O  0.38880853  0.08309774  0.10277785    -0.76800
C108        C  0.50662801  0.00942492  0.18910631     0.85700
C109        C  0.07670935  0.10748339  0.11932469     0.85400
O110        O  0.42209345  0.11834817  0.13550843    -0.75800
C111        C  0.49411603  0.02138638  0.04311596     0.86200
O112        O  0.49660961  0.05214267  0.17836738    -0.75900
C113        C  0.11062747  0.41865967  0.11635399     0.86300
C114        C  0.42425135  0.41097148  0.11946333     0.86600
O115        O  0.46106422  0.40574162  0.13428380    -0.78300
C116        C  0.20924087  0.30425152  0.13547252     0.32700
C117        C  0.28770885  0.22945776  0.13869607     0.32700
C118        C  0.25285028  0.31147472  0.11884336    -0.03500
C119        C  0.23193470  0.29462411  0.16256586    -0.04300
C120        C  0.20100739  0.25254031  0.12758370    -0.04100
C121        C  0.29333515  0.27249300  0.12051556    -0.03500
C122        C  0.27178286  0.25620790  0.16433088    -0.04300
C123        C  0.24108493  0.21464786  0.12908220    -0.04100
C124        C  0.33350808  0.29346820  0.11673430    -0.29500
N125        N  0.31949498  0.34280719  0.11245757     0.17000
C126        C  0.27102617  0.35419504  0.11435455    -0.29500
H127        H  0.25111826  0.39185813  0.11580466     0.18900
C128        C  0.28341603  0.24999180  0.19030601    -0.28500
N129        N  0.25192899  0.28381735  0.20415903     0.15700
C130        C  0.22071357  0.31147336  0.18735577    -0.28500
C131        C  0.22619799  0.17093567  0.12338581    -0.28800
N132        N  0.17805949  0.18104148  0.11883870     0.16200
H133        H  0.24822509  0.13408619  0.12377567     0.18800
C134        C  0.16212182  0.23087131  0.12136230    -0.28800
H135        H  0.12503881  0.24977324  0.11943278     0.18800
H136        H  0.19065973  0.34011424  0.19292880     0.18800
H137        H  0.37040145  0.27463548  0.11957110     0.18900
H138        H  0.31188927  0.22224736  0.19850831     0.18800
C139        C  0.46851821  0.05180721  0.33111683     0.32700
C140        C  0.03829468  0.46871221  0.32758335     0.32700
C141        C  0.45813864  0.00124030  0.33940029    -0.03500
C142        C  0.48731464  0.04164943  0.30346034    -0.04300
C143        C  0.99821426  0.06873430  0.34431557    -0.04100
C144        C  0.49076271  0.47031129  0.33803844    -0.03500
C145        C  0.01786469  0.00892362  0.30059393    -0.04300
C146        C  0.03910378  0.03032566  0.34378347    -0.04100
C147        C  0.47631908  0.42602466  0.34319416    -0.29500
N148        N  0.42787213  0.43530370  0.34694472     0.17000
C149        C  0.41777167  0.98249596  0.34573559    -0.29500
H150        H  0.38165412  0.00365098  0.34809208     0.18900
C151        C  0.03056840  0.00200009  0.27485903    -0.28500
N152        N  0.50477108  0.03424585  0.26167237     0.15700
C153        C  0.47587643  0.06181659  0.27929131    -0.28500
C154        C  0.07877978  0.05196180  0.34752387    -0.28800
N155        N  0.06430876  0.10156828  0.35064051     0.16200
H156        H  0.11577245  0.03295352  0.34567197     0.18800
C157        C  0.01557765  0.11221755  0.34822726    -0.28800
H158        H  0.99462385  0.14944879  0.34655156     0.18800
H159        H  0.44766931  0.09321438  0.27470633     0.18800
H160        H  0.49886448  0.38944804  0.34281629     0.18900
H161        H  0.05476647  0.43823574  0.26958406     0.18800
O162        O  0.17221570  0.35993381  0.33087558    -0.75800
C163        C  0.32535991  0.36268860  0.34629849     0.85300
O164        O  0.26804590  0.21372992  0.28952767    -0.76900
O165        O  0.36658784  0.20359456  0.36556820    -0.78400
O166        O  0.21394023  0.25947559  0.40978735    -0.78200
O167        O  0.14495057  0.32707309  0.36602762    -0.76800
Zn168      Zn  0.23998527  0.31898735  0.32521810     1.55700
O169        O  0.29150402  0.26665994  0.41067060    -0.78200
Cd170      Cd  0.19526794  0.26250524  0.37099353     1.59700
Cd171      Cd  0.26661881  0.19865402  0.32879237     1.59600
O172        O  0.16124866  0.20379846  0.36189137    -0.78200
O173        O  0.25343251  0.26211268  0.34885342    -1.88700
Cd174      Cd  0.31110714  0.26473941  0.37158597     1.59900
O175        O  0.21282225  0.15741327  0.33498605    -0.78200
O176        O  0.33882667  0.32765597  0.36258200    -0.76800
C177        C  0.25936300  0.25393576  0.27652204     0.85700
C178        C  0.14026827  0.36009225  0.34838486     0.85400
O179        O  0.28849796  0.36392986  0.33171440    -0.75800
C180        C  0.25226704  0.26321845  0.42208081     0.86200
O181        O  0.24734790  0.29618346  0.28749883    -0.75900
C182        C  0.17343935  0.16542544  0.34769636     0.86300
C183        C  0.36965076  0.16500546  0.35138266     0.86600
O184        O  0.33436128  0.15736000  0.33738378    -0.78300
C185        C  0.09493966  0.13798791  0.35314409    -0.13700
C186        C  0.14150298  0.12858517  0.34566592    -0.28900
H187        H  0.07925287  0.17458157  0.36048001     0.15300
H188        H  0.15654639  0.09338138  0.33667057     0.15900
C189        C  0.09709065  0.40014973  0.34897245    -0.13700
C190        C  0.07813500  0.42304759  0.32727302    -0.28900
H191        H  0.08058225  0.41116941  0.36759410     0.15300
H192        H  0.09378259  0.40997139  0.30875646     0.15900
C193        C  0.41581490  0.12852831  0.35085506    -0.13700
C194        C  0.42393495  0.09237075  0.33282580    -0.28900
H195        H  0.44317550  0.13171479  0.36526810     0.15300
H196        H  0.39539348  0.08931619  0.31904155     0.15900
C197        C  0.39960648  0.39751023  0.35142243    -0.13700
C198        C  0.35323447  0.40301202  0.34377666    -0.28900
H199        H  0.41754239  0.36222034  0.35954003     0.15300
H200        H  0.33626681  0.43663945  0.33374402     0.15900
C201        C  0.24922189  0.28902035  0.23198307    -0.13700
C202        C  0.26406437  0.25036057  0.24797414    -0.28900
H203        H  0.23177141  0.32445543  0.24002711     0.15300
H204        H  0.27869527  0.21417743  0.23984608     0.15900
C205        C  0.51212641  0.00425143  0.21746942    -0.13700
C206        C  0.50107092  0.04224951  0.23407555    -0.28900
H207        H  0.02360509  0.96398236  0.22578818     0.15300
H208        H  0.48586247  0.07910907  0.22680935     0.15500
C209        C  0.14992945  0.14342209  0.11377059    -0.13700
C210        C  0.10398946  0.14828662  0.12154323    -0.28900
H211        H  0.16799934  0.10834556  0.10558132     0.15300
H212        H  0.08694908  0.18188315  0.13148774     0.15900
C213        C  0.16386343  0.34407903  0.13470659    -0.13700
C214        C  0.15400296  0.37890651  0.11598394    -0.28900
H215        H  0.13775247  0.34314861  0.15002172     0.15300
H216        H  0.17813029  0.37846182  0.09966979     0.15900
C217        C  0.33117270  0.18747650  0.14014229    -0.13700
C218        C  0.34508877  0.15846362  0.11942408    -0.28900
H219        H  0.35109504  0.18071169  0.15827830     0.15300
H220        H  0.32373633  0.16428294  0.10169871     0.15900
C221        C  0.34971290  0.37932978  0.11002717    -0.13700
C222        C  0.39417381  0.37253259  0.12042566    -0.28900
H223        H  0.33460766  0.41464103  0.10092884     0.15300
H224        H  0.40816298  0.33878861  0.13115316     0.15900
C225        C  0.00856123  0.01752757  0.94112291    -0.15800
C226        C  0.49833206  0.02111826  0.96420460     0.08300
C227        C  0.49535591  0.02160296  0.99167815     0.10100
C228        C  0.49359155  0.02182236  0.01513341    -0.16600
C229        C  0.14501431  0.15625375  0.84235086    -0.13700
C230        C  0.09901570  0.16482386  0.83390704    -0.28900
H231        H  0.16095179  0.11989540  0.85001553     0.15300
H232        H  0.08397721  0.19945021  0.82419318     0.15900
C233        C  0.34368979  0.16469508  0.84392538    -0.13700
C234        C  0.33115727  0.19949973  0.82556562    -0.28900
H235        H  0.32244285  0.16633826  0.86153965     0.15300
H236        H  0.35160440  0.19691955  0.80766923     0.15900
C237        C  0.15154084  0.38998485  0.84875402    -0.13700
C238        C  0.16401863  0.35396932  0.83123380    -0.28900
H239        H  0.17439777  0.39289758  0.86540913     0.15300
H240        H  0.13937813  0.35072012  0.81531798     0.15900
C241        C  0.34821745  0.38992967  0.85832023    -0.13700
C242        C  0.39135111  0.38460657  0.84661271    -0.28900
H243        H  0.33318189  0.42507244  0.86750624     0.15300
H244        H  0.40543879  0.35081960  0.83603659     0.15900
C245        C  0.98032313  0.04735225  0.72286616    -0.13700
C246        C  0.99616634  0.00989519  0.73947103    -0.28900
H247        H  0.46530685  0.07639735  0.72656735     0.15300
H248        H  0.01775638  0.46766221  0.72910461     0.15900
C249        C  0.25039249  0.26429095  0.44993812    -0.15800
C250        C  0.24559499  0.26594127  0.47319913     0.08300
C251        C  0.23883778  0.26797837  0.50036685     0.10100
C252        C  0.23478108  0.26903259  0.52367026    -0.16600
C253        C  0.25710807  0.26978491  0.72321570    -0.13700
C254        C  0.25630814  0.31049341  0.73757786    -0.28900
H255        H  0.26089082  0.23379531  0.73265082     0.15300
H256        H  0.24835628  0.34718167  0.72880378     0.15900
C257        C  0.36690422  0.10529508  0.63025067    -0.13700
C258        C  0.40942097  0.10041064  0.61835722    -0.28900
H259        H  0.35990155  0.07666331  0.64349032     0.15300
H260        H  0.41587422  0.12998048  0.60561657     0.15900
C261        C  0.10714364  0.43036702  0.63314704    -0.13700
C262        C  0.06239005  0.43369284  0.62384668    -0.28900
H263        H  0.11675466  0.46163703  0.64348872     0.15300
H264        H  0.05371384  0.40147457  0.61403506     0.15900
C265        C  0.37717327  0.37347506  0.61461088    -0.13700
C266        C  0.37034368  0.42188743  0.62089616    -0.28900
H267        H  0.41135536  0.35535478  0.60646238     0.15300
H268        H  0.33500570  0.44080609  0.62725242     0.15900
C269        C  0.11687537  0.14821261  0.62378397    -0.13700
C270        C  0.08073119  0.14744753  0.60686959    -0.28900
H271        H  0.12613486  0.11786713  0.63755694     0.15300
H272        H  0.06912511  0.17880217  0.59395875     0.15900
O273        O  0.18794750  0.66987497  0.63671467    -0.75800
C274        C  0.33972437  0.66205092  0.63148181     0.85300
O275        O  0.22781223  0.81121231  0.68482690    -0.76900
O276        O  0.32762973  0.82392615  0.61122925    -0.78400
O277        O  0.20682651  0.76776334  0.56106348    -0.78200
O278        O  0.14773086  0.70883875  0.60307104    -0.76800
Zn279      Zn  0.23778478  0.70989703  0.64609306     1.55700
O280        O  0.28684885  0.75801482  0.56514695    -0.78200
Cd281      Cd  0.18122399  0.77016411  0.59857064     1.59700
Cd282      Cd  0.22491643  0.82859546  0.64560341     1.59600
O283        O  0.13322214  0.83744379  0.60236357    -0.78200
O284        O  0.23560718  0.76698401  0.62382913    -1.88700
Cd285      Cd  0.29825755  0.76098661  0.60490369     1.59900
O286        O  0.16024105  0.87415820  0.63664210    -0.78200
O287        O  0.34637257  0.69691790  0.61627233    -0.76800
C288        C  0.23119664  0.76924542  0.69606183     0.85700
C289        C  0.15596694  0.67254804  0.61907915     0.85400
O290        O  0.30022899  0.66335866  0.64323397    -0.75800
C291        C  0.24876711  0.76243868  0.55131678     0.86200
O292        O  0.23320646  0.72917105  0.68340773    -0.75900
C293        C  0.12999972  0.87358854  0.61827705     0.86300
C294        C  0.31393582  0.86402307  0.62396681     0.86600
O295        O  0.27620693  0.87104368  0.63788472    -0.78300
C296        C  0.03032655  0.98824275  0.63102899     0.32700
C297        C  0.45758254  0.56426579  0.62854966     0.32700
C298        C  0.47932762  0.96793845  0.61264363    -0.03500
C299        C  0.00948787  0.01371723  0.65607044    -0.04300
C300        C  0.03531781  0.52454161  0.60849032    -0.04100
C301        C  0.44011309  0.00721904  0.61090602    -0.03500
C302        C  0.47253633  0.55086275  0.65679533    -0.04300
C303        C  0.99707136  0.56514024  0.60647239    -0.04100
C304        C  0.39930226  0.98592718  0.60996121    -0.29500
N305        N  0.41316776  0.93575690  0.60954638     0.17000
C306        C  0.46148708  0.92462102  0.61156325    -0.29500
H307        H  0.48154215  0.88746593  0.61498935     0.18900
C308        C  0.46048233  0.56933124  0.68126968    -0.28500
N309        N  0.98790470  0.53312061  0.69088028     0.15700
C310        C  0.01893228  0.00872034  0.68228466    -0.28500
C311        C  0.01634560  0.60647354  0.60109873    -0.28800
N312        N  0.06464166  0.59346916  0.60042727     0.16200
H313        H  0.99725109  0.64459355  0.60122795     0.18800
C314        C  0.07697583  0.54416303  0.60578472    -0.28800
H315        H  0.11342244  0.52494661  0.60957043     0.18800
H316        H  0.04850806  0.98351070  0.69130238     0.18800
H317        H  0.36235428  0.00540178  0.61123143     0.18900
H318        H  0.43441613  0.60237860  0.68591390     0.18800
O319        O  0.07501393  0.92296055  0.82710154    -0.75800
C320        C  0.41999212  0.92243484  0.84302034     0.85300
O321        O  0.98523650  0.55532056  0.77440000    -0.76900
O322        O  0.38833901  0.58951804  0.86035756    -0.78400
O323        O  0.02972890  0.53379021  0.90070207    -0.78200
O324        O  0.11201345  0.97226426  0.85105329    -0.76800
Zn325      Zn  0.00778775  0.96222130  0.82059417     1.55700
O326        O  0.45661982  0.52461493  0.90558948    -0.78200
Cd327      Cd  0.04923258  0.52762312  0.86199093     1.59700
Cd328      Cd  0.98222212  0.57947800  0.81331683     1.59600
O329        O  0.07940750  0.58700087  0.85160778    -0.78200
O330        O  0.99491601  0.52146692  0.83800419    -1.88700
Cd331      Cd  0.43780873  0.52485000  0.86674212     1.59900
O332        O  0.03445318  0.62318422  0.81859464    -0.78200
O333        O  0.40682182  0.96175275  0.85639542    -0.76800
C334        C  0.99872241  0.51189912  0.76479193     0.85700
C335        C  0.11258661  0.93268822  0.83818223     0.85400
O336        O  0.45746282  0.91636517  0.82876274    -0.75800
C337        C  0.99224283  0.52583595  0.91223706     0.86200
O338        O  0.00344060  0.97705678  0.78202637    -0.75900
C339        C  0.06980438  0.62074908  0.83436392     0.86300
C340        C  0.38497517  0.62486830  0.84399931     0.86600
O341        O  0.41683021  0.62631988  0.82671863    -0.78300
C342        C  0.28406778  0.73800363  0.83015676     0.32700
C343        C  0.20638348  0.81116376  0.83804802     0.32700
C344        C  0.29289121  0.77965102  0.84845559    -0.03500
C345        C  0.26326241  0.76663811  0.80583897    -0.04300
C346        C  0.23993722  0.72127847  0.84172969    -0.04100
C347        C  0.25249459  0.81756255  0.85293238    -0.03500
C348        C  0.22362902  0.80430038  0.80993169    -0.04300
C349        C  0.19991133  0.75874670  0.84558461    -0.04100
C350        C  0.27067492  0.86025318  0.85758392    -0.29500
N351        N  0.31928380  0.85025737  0.85578043     0.17000
C352        C  0.33304181  0.80155489  0.84986328    -0.29500
H353        H  0.36903796  0.78398706  0.84421996     0.18900
C354        C  0.20789846  0.82355440  0.78609432    -0.28500
N355        N  0.23636500  0.79784907  0.76770913     0.15700
C356        C  0.27036898  0.76303980  0.77950413    -0.28500
C357        C  0.16015562  0.73617901  0.84563211    -0.28800
N358        N  0.17517820  0.68654061  0.84298254     0.16200
H359        H  0.12282166  0.75474347  0.84602161     0.18800
C360        C  0.22359175  0.67710102  0.84022765    -0.28800
H361        H  0.24478841  0.64126744  0.83518171     0.18800
H362        H  0.29738689  0.73640633  0.76958983     0.18800
H363        H  0.24970688  0.89740268  0.85919174     0.18900
H364        H  0.17674926  0.85229153  0.78225382     0.18800
O365        O  0.03859180  0.62204411  0.12739167    -0.75800
C366        C  0.39090317  0.60790710  0.11858153     0.85300
O367        O  0.51380730  0.46512971  0.17944655    -0.76900
O368        O  0.40862664  0.95622390  0.10263415    -0.78400
O369        O  0.03577559  0.51881612  0.05363906    -0.78200
O370        O  0.08934178  0.57744156  0.09956903    -0.76800
Zn371      Zn  0.49018704  0.56794785  0.14174198     1.55700
O372        O  0.46273972  0.51036391  0.05807930    -0.78200
Cd373      Cd  0.05626383  0.51717132  0.09240404     1.59700
Cd374      Cd  0.51171812  0.95580166  0.13701280     1.59600
O375        O  0.11318370  0.94395194  0.10168023    -0.78200
O376        O  0.50197216  0.50948982  0.11942439    -1.88700
Cd377      Cd  0.44453498  0.50903890  0.09674045     1.59900
O378        O  0.07839735  0.90219084  0.13081681    -0.78200
O379        O  0.39349143  0.57214528  0.10262668    -0.76800
C380        C  0.50660321  0.50626713  0.19148351     0.85700
C381        C  0.07664161  0.61580015  0.11373582     0.85400
O382        O  0.42429957  0.61017483  0.13503208    -0.75800
C383        C  0.50155519  0.51429345  0.04655190     0.86200
O384        O  0.49648160  0.54786990  0.17967170    -0.75900
C385        C  0.11371689  0.90636711  0.11635277     0.86300
C386        C  0.42332519  0.91767421  0.11655901     0.86600
O387        O  0.46172389  0.91242056  0.13001602    -0.78300
C388        C  0.21322560  0.79643247  0.13715148     0.32700
C389        C  0.29203020  0.72229048  0.13527749     0.32700
C390        C  0.25964617  0.81147057  0.12790067    -0.03500
C391        C  0.22877789  0.77048571  0.16319821    -0.04300
C392        C  0.20835514  0.75297746  0.11915414    -0.04100
C393        C  0.29990531  0.77387715  0.12699036    -0.03500
C394        C  0.26885992  0.73234034  0.16203585    -0.04300
C395        C  0.24888310  0.71415769  0.11825765    -0.04100
C396        C  0.33821049  0.79550092  0.11997638    -0.29500
N397        N  0.32173443  0.84511094  0.11657959     0.17000
C398        C  0.27379224  0.85505152  0.12127655    -0.29500
H399        H  0.25141441  0.89172330  0.12099797     0.18900
C400        C  0.27929406  0.71522327  0.18690333    -0.28500
N401        N  0.24736206  0.74249846  0.20327628     0.15700
C402        C  0.21623470  0.77638987  0.18903497    -0.28500
C403        C  0.23090738  0.67138544  0.11343264    -0.28800
N404        N  0.18257304  0.68284630  0.11032177     0.16200
H405        H  0.25065856  0.63370320  0.11527413     0.18800
C406        C  0.16838877  0.73221616  0.11435980    -0.28800
H407        H  0.13142459  0.75129504  0.11625633     0.18800
H408        H  0.18721284  0.80373599  0.19689513     0.18800
H409        H  0.37524657  0.77663982  0.11799573     0.18900
H410        H  0.30909559  0.68645293  0.19283090     0.18800
C411        C  0.45663728  0.55947232  0.33081214     0.32700
C412        C  0.03441517  0.98522471  0.32697489     0.32700
C413        C  0.44999585  0.50746910  0.33909782    -0.03500
C414        C  0.47920615  0.54988658  0.30395881    -0.04300
C415        C  0.01762169  0.55796807  0.33987682    -0.04100
C416        C  0.49573484  0.96116515  0.33672937    -0.03500
C417        C  0.02167249  0.48791282  0.30064112    -0.04300
C418        C  0.05287192  0.51434537  0.34032640    -0.04100
C419        C  0.47806263  0.91887668  0.34191606    -0.29500
N420        N  0.43047920  0.93222653  0.34723933     0.17000
C421        C  0.41142115  0.48501401  0.34447046    -0.29500
H422        H  0.37408994  0.50337668  0.34569527     0.18900
C423        C  0.03043971  0.47153105  0.27570467    -0.28500
N424        N  0.50026065  0.54005507  0.26277845     0.15700
C425        C  0.46807218  0.56683013  0.27916639    -0.28500
C426        C  0.09705094  0.52889914  0.34084776    -0.28800
N427        N  0.09012996  0.57897673  0.34176489     0.16200
H428        H  0.13174933  0.50485331  0.33820823     0.18800
C429        C  0.04203674  0.59703932  0.34039119    -0.28800
H430        H  0.02610149  0.63558224  0.33692118     0.18800
H431        H  0.43757522  0.59483678  0.27328750     0.18800
H432        H  0.49749385  0.88101731  0.34030200     0.18900
H433        H  0.06007085  0.97488702  0.26726554     0.18800
O434        O  0.16895301  0.87690710  0.33176737    -0.75800
C435        C  0.32268243  0.86865029  0.34572080     0.85300
O436        O  0.24651323  0.72993118  0.28700139    -0.76900
O437        O  0.35296492  0.70875543  0.36284505    -0.78400
O438        O  0.20887797  0.77457638  0.41053397    -0.78200
O439        O  0.13931772  0.84547556  0.36657194    -0.76800
Zn440      Zn  0.23344886  0.83255291  0.32564330     1.55700
O441        O  0.28811084  0.77271452  0.40914425    -0.78200
Cd442      Cd  0.18792189  0.77960873  0.37189654     1.59700
Cd443      Cd  0.25159787  0.71171276  0.32656041     1.59600
O444        O  0.15140527  0.72324129  0.36409824    -0.78200
O445        O  0.24405933  0.77424898  0.34801746    -1.88700
Cd446      Cd  0.30305111  0.77236354  0.36982576     1.59900
O447        O  0.19581878  0.67365002  0.33528362    -0.78200
O448        O  0.33475391  0.83226493  0.36130637    -0.76800
C449        C  0.23899213  0.77207853  0.27556747     0.85700
C450        C  0.13638756  0.87832358  0.34888006     0.85400
O451        O  0.28508128  0.87327256  0.33150676    -0.75800
C452        C  0.24946050  0.77268153  0.42170266     0.86200
O453        O  0.23390380  0.81260377  0.28816178    -0.75900
C454        C  0.15882113  0.68464463  0.34987786     0.86300
C455        C  0.35440500  0.67119068  0.34817901     0.86600
O456        O  0.31917800  0.66629561  0.33332045    -0.78300
C457        C  0.12798439  0.60740712  0.34047742    -0.13700
C458        C  0.12178244  0.65333005  0.35040928    -0.28900
H459        H  0.16264183  0.59037218  0.33242970     0.15300
H460        H  0.08806234  0.66848570  0.35999977     0.15900
C461        C  0.09400818  0.91891536  0.34849069    -0.13700
C462        C  0.07849768  0.94427740  0.32674144    -0.28900
H463        H  0.07360098  0.92686081  0.36631735     0.15300
H464        H  0.09752906  0.93512861  0.30860111     0.15900
C465        C  0.39904398  0.63310904  0.34888030    -0.13700
C466        C  0.40986143  0.59736197  0.33091124    -0.28900
H467        H  0.42411542  0.63554910  0.36460713     0.15300
H468        H  0.38349212  0.59395208  0.31591813     0.15900
C469        C  0.39928864  0.89742059  0.35164576    -0.13700
C470        C  0.35316122  0.90647137  0.34365620    -0.28900
H471        H  0.41493795  0.86119681  0.35957258     0.15300
H472        H  0.33849782  0.94102140  0.33376365     0.15900
C473        C  0.24890542  0.73670632  0.23109839    -0.13700
C474        C  0.23519606  0.77555267  0.24696931    -0.28900
H475        H  0.26489314  0.70079001  0.23925586     0.15300
H476        H  0.22254371  0.81209083  0.23863944     0.15900
C477        C  0.51100826  0.50443041  0.21990175    -0.13700
C478        C  0.49767403  0.54433208  0.23502404    -0.28900
H479        H  0.98242163  0.57358081  0.22326906     0.15300
H480        H  0.48130899  0.57974694  0.22642946     0.15500
C481        C  0.15244651  0.64640693  0.10696280    -0.13700
C482        C  0.10646221  0.65440535  0.11495552    -0.28900
H483        H  0.16864154  0.61024189  0.09926302     0.15300
H484        H  0.09095807  0.68912442  0.12431365     0.15900
C485        C  0.16975451  0.83799646  0.13756726    -0.13700
C486        C  0.15634606  0.86619458  0.11639335    -0.28900
H487        H  0.14933405  0.84523895  0.15541562     0.15300
H488        H  0.17806786  0.86046925  0.09892466     0.15900
C489        C  0.33769698  0.68316276  0.13542044    -0.13700
C490        C  0.34769829  0.64739641  0.11740658    -0.28900
H491        H  0.36366593  0.68520648  0.15082471     0.15300
H492        H  0.32370823  0.64670288  0.10100202     0.15900
C493        C  0.34938632  0.88284425  0.11108689    -0.13700
C494        C  0.39588141  0.87715433  0.11791356    -0.28900
H495        H  0.33074702  0.91851984  0.10373471     0.15300
H496        H  0.41353966  0.84280105  0.12704867     0.15900
C497        C  0.99180006  0.52522416  0.94012513    -0.15800
C498        C  0.49708583  0.52774849  0.96840843     0.08300
C499        C  0.49914646  0.52325155  0.99563283     0.10100
C500        C  0.50068059  0.51881077  0.01887451    -0.16600
C501        C  0.14563336  0.64938106  0.84242543    -0.13700
C502        C  0.10040079  0.65857161  0.83295031    -0.28900
H503        H  0.16115836  0.61242927  0.84946756     0.15300
H504        H  0.08596276  0.69399742  0.82384826     0.15900
C505        C  0.34334188  0.66584083  0.84611436    -0.13700
C506        C  0.32710368  0.69666544  0.82639204    -0.28900
H507        H  0.32443883  0.67018616  0.86454411     0.15300
H508        H  0.34424692  0.69145465  0.80751428     0.15900
C509        C  0.15833201  0.89758409  0.83569457    -0.13700
C510        C  0.16142576  0.84989301  0.84216668    -0.28900
H511        H  0.18940793  0.91100377  0.82830936     0.15300
H512        H  0.12971560  0.83838250  0.85010279     0.15900
C513        C  0.34875576  0.88786407  0.85622479    -0.13700
C514        C  0.39132560  0.88250979  0.84382486    -0.28900
H515        H  0.33438084  0.92291216  0.86567406     0.15300
H516        H  0.40494787  0.84870920  0.83318401     0.15900
C517        C  0.98599082  0.54077203  0.71875305    -0.13700
C518        C  0.00231760  0.50453171  0.73608817    -0.28900
H519        H  0.46797366  0.58202900  0.73412857     0.15300
H520        H  0.01107245  0.97329544  0.73192102     0.15900
C521        C  0.25177934  0.76993738  0.44951094    -0.15800
C522        C  0.25329517  0.76708163  0.47286288     0.08300
C523        C  0.25396987  0.76394360  0.50021414     0.10100
C524        C  0.25288502  0.76229545  0.52357960    -0.16600
C525        C  0.23529088  0.76525294  0.72443270    -0.13700
C526        C  0.22922619  0.80461097  0.74026670    -0.28900
H527        H  0.24434985  0.72817909  0.73268733     0.15300
H528        H  0.21690646  0.84179449  0.73262995     0.15900
C529        C  0.37758339  0.61806277  0.63599185    -0.13700
C530        C  0.42038520  0.61098922  0.62425210    -0.28900
H531        H  0.36964106  0.58992937  0.64929512     0.15300
H532        H  0.42857893  0.63923949  0.61112860     0.15900
C533        C  0.09030153  0.91639611  0.61484217    -0.13700
C534        C  0.07484846  0.94832641  0.63419201    -0.28900
H535        H  0.07145336  0.92029365  0.59629513     0.15300
H536        H  0.09232197  0.94319627  0.65308257     0.15900
C537        C  0.34191511  0.90428343  0.62246364    -0.13700
C538        C  0.38377519  0.89842819  0.60968534    -0.28900
H539        H  0.32848369  0.93889560  0.63251559     0.15300
H540        H  0.39846187  0.86269629  0.60099387     0.15900
C541        C  0.12871099  0.63163145  0.61751129    -0.13700
C542        C  0.09531252  0.62960778  0.59921139    -0.28900
H543        H  0.13537488  0.60285619  0.63230400     0.15300
H544        H  0.08651438  0.65969668  0.58524245     0.15900
O545        O  0.69972506  0.16289373  0.63205091    -0.75800
C546        C  0.85227659  0.17709865  0.62472865     0.85300
O547        O  0.73048606  0.30453458  0.68200345    -0.76900
O548        O  0.81780936  0.33778676  0.60622028    -0.78400
O549        O  0.70262654  0.26776182  0.55957951    -0.78200
O550        O  0.64975171  0.20634098  0.60328454    -0.76800
Zn551      Zn  0.74780746  0.20650491  0.64062104     1.55700
O552        O  0.78209925  0.26566895  0.56182041    -0.78200
Cd553      Cd  0.68036317  0.26870349  0.59753621     1.59700
Cd554      Cd  0.72353783  0.32812885  0.64401036     1.59600
O555        O  0.62885033  0.33239720  0.60285374    -0.78200
O556        O  0.73654441  0.26825086  0.62108567    -1.88700
Cd557      Cd  0.79543674  0.27169089  0.60081235     1.59900
O558        O  0.65474658  0.36842627  0.63767060    -0.78200
O559        O  0.85219734  0.21695484  0.61212027    -0.76800
C560        C  0.73905106  0.26130772  0.69215403     0.85700
C561        C  0.66291133  0.16767525  0.61726759     0.85400
O562        O  0.81427836  0.16695840  0.63478856    -0.75800
C563        C  0.74346568  0.26605221  0.54898722     0.86200
O564        O  0.74499213  0.22186981  0.67860857    -0.75900
C565        C  0.62356068  0.36668163  0.61986665     0.86300
C566        C  0.80587429  0.37450899  0.62145023     0.86600
O567        O  0.77121930  0.37669031  0.63743134    -0.78300
C568        C  0.52580117  0.48134509  0.63484367     0.32700
C569        C  0.94846435  0.05740028  0.62513755     0.32700
C570        C  0.97651824  0.47157094  0.61231950    -0.03500
C571        C  0.50721689  0.50813028  0.65991800    -0.04300
C572        C  0.53527480  0.02411351  0.61089587    -0.04100
C573        C  0.93883185  0.51245485  0.61106394    -0.03500
C574        C  0.96780971  0.04935824  0.65306058    -0.04300
C575        C  0.49605256  0.06346529  0.60849026    -0.04100
C576        C  0.89647225  0.49399209  0.60978074    -0.29500
N577        N  0.90784247  0.44371538  0.60899655     0.17000
C578        C  0.95617801  0.42981958  0.61083892    -0.29500
H579        H  0.97463293  0.39179226  0.61342314     0.18900
C580        C  0.95315972  0.06597354  0.67750260    -0.28500
N581        N  0.48355206  0.03088613  0.69195187     0.15700
C582        C  0.51525945  0.50101499  0.68609730    -0.28500
C583        C  0.51447568  0.10603968  0.60484210    -0.28800
N584        N  0.56299777  0.09460780  0.60514396     0.16200
H585        H  0.49417671  0.14368254  0.60506500     0.18800
C586        C  0.57626401  0.04509241  0.60957379    -0.28800
H587        H  0.61278021  0.02623931  0.61346080     0.18800
H588        H  0.54060413  0.47114249  0.69498707     0.18800
H589        H  0.86018280  0.51529588  0.61079187     0.18900
H590        H  0.92137008  0.09319525  0.68219046     0.18800
O591        O  0.57331488  0.42123566  0.83352606    -0.75800
C592        C  0.92020095  0.42321358  0.83878980     0.85300
O593        O  0.48423274  0.05518893  0.77529625    -0.76900
O594        O  0.89124227  0.09055631  0.85976432    -0.78400
O595        O  0.53825166  0.02221694  0.90044570    -0.78200
O596        O  0.60425478  0.46439231  0.86365500    -0.76800
Zn597      Zn  0.50759057  0.46118684  0.82460948     1.55700
O598        O  0.96476818  0.02103614  0.90251330    -0.78200
Cd599      Cd  0.55260619  0.02504075  0.86081039     1.59700
Cd600      Cd  0.48180719  0.07922337  0.81419177     1.59600
O601        O  0.57744122  0.08891493  0.85305474    -0.78200
O602        O  0.49493333  0.02100003  0.83874879    -1.88700
Cd603      Cd  0.94129211  0.02516982  0.86426525     1.59900
O604        O  0.53329010  0.12385409  0.81951665    -0.78200
O605        O  0.90604042  0.46212030  0.85231121    -0.76800
C606        C  0.49374322  0.01134661  0.76578292     0.85700
C607        C  0.60706070  0.42643549  0.84922574     0.85400
O608        O  0.95899270  0.41723564  0.82560589    -0.75800
C609        C  0.49938341  0.02139885  0.91276698     0.86200
O610        O  0.50548809  0.47534337  0.78602897    -0.75900
C611        C  0.56762118  0.12265273  0.83583816     0.86300
C612        C  0.88559652  0.12522105  0.84288821     0.86600
O613        O  0.91548025  0.12614950  0.82447269    -0.78300
C614        C  0.78322021  0.23734140  0.82830289     0.32700
C615        C  0.70544399  0.31184847  0.83301375     0.32700
C616        C  0.79152244  0.28138170  0.84516180    -0.03500
C617        C  0.76359461  0.26278643  0.80293329    -0.04300
C618        C  0.73828239  0.22262652  0.84018737    -0.04100
C619        C  0.75103924  0.32028917  0.84769881    -0.03500
C620        C  0.72417803  0.30112386  0.80551360    -0.04300
C621        C  0.69838161  0.26087615  0.84239930    -0.04100
C622        C  0.76936291  0.36346007  0.84988524    -0.29500
N623        N  0.81796538  0.35272111  0.84948557     0.17000
C624        C  0.83185130  0.30317006  0.84604565    -0.29500
H625        H  0.86825491  0.28458574  0.84180109     0.18900
C626        C  0.70976472  0.31781404  0.78112272    -0.28500
N627        N  0.73877023  0.28985581  0.76378167     0.15700
C628        C  0.77194090  0.25611379  0.77678859    -0.28500
C629        C  0.65828788  0.23923954  0.84400250    -0.28800
N630        N  0.67280509  0.18924654  0.84348729     0.16200
H631        H  0.62117258  0.25856192  0.84387280     0.18800
C632        C  0.72133814  0.17872005  0.84084618    -0.28800
H633        H  0.74220504  0.14200228  0.83733154     0.18800
H634        H  0.79946970  0.22852094  0.76787382     0.18800
H635        H  0.74885456  0.40086801  0.84833922     0.18900
H636        H  0.67934321  0.34672512  0.77622262     0.18800
O637        O  0.53923017  0.11765115  0.13355740    -0.75800
C638        C  0.89076783  0.10748942  0.11596383     0.85300
O639        O  0.01275632  0.96239322  0.17627275    -0.76900
O640        O  0.91116747  0.45486385  0.10307816    -0.78400
O641        O  0.53373458  0.02282898  0.05471513    -0.78200
O642        O  0.58632946  0.07918912  0.10224668    -0.76800
Zn643      Zn  0.99004702  0.06645959  0.13929710     1.55700
O644        O  0.96691854  0.00907730  0.05415624    -0.78200
Cd645      Cd  0.55454505  0.01907652  0.09339577     1.59700
Cd646      Cd  0.01112440  0.46202285  0.13938666     1.59600
O647        O  0.61110338  0.44432422  0.10257563    -0.78200
O648        O  0.00255967  0.00886660  0.11631644    -1.88700
Cd649      Cd  0.94583836  0.00969534  0.09273882     1.59900
O650        O  0.57944262  0.40389835  0.13360692    -0.78200
O651        O  0.89440561  0.07332403  0.09891578    -0.76800
C652        C  0.00622163  0.00307652  0.18869203     0.85700
C653        C  0.57545916  0.11452942  0.11852936     0.85400
O654        O  0.92359869  0.10833544  0.13296937    -0.75800
C655        C  0.00702584  0.01024180  0.04318984     0.86200
O656        O  0.99664344  0.04506789  0.17719526    -0.75900
C657        C  0.61325411  0.40743752  0.11791228     0.86300
C658        C  0.92475971  0.41876990  0.11878455     0.86600
O659        O  0.96182091  0.41630033  0.13324356    -0.78300
C660        C  0.71384124  0.29689332  0.13694618     0.32700
C661        C  0.79205965  0.22203297  0.13429638     0.32700
C662        C  0.76012725  0.31143753  0.12700231    -0.03500
C663        C  0.73032979  0.27107096  0.16281977    -0.04300
C664        C  0.70745825  0.25329342  0.11938608    -0.04100
C665        C  0.80016732  0.27354846  0.12581167    -0.03500
C666        C  0.77006118  0.23255396  0.16136293    -0.04300
C667        C  0.74784266  0.21420530  0.11795213    -0.04100
C668        C  0.83912321  0.29540186  0.12006126    -0.29500
N669        N  0.82319632  0.34527266  0.11746647     0.17000
C670        C  0.77501951  0.35525744  0.12159421    -0.29500
H671        H  0.75301584  0.39210204  0.12208888     0.18900
C672        C  0.78092229  0.21555695  0.18623992    -0.28500
N673        N  0.74955915  0.24329812  0.20276341     0.15700
C674        C  0.71839024  0.27727822  0.18867260    -0.28500
C675        C  0.72922202  0.17142794  0.11414838    -0.28800
N676        N  0.68062481  0.18287149  0.11249587     0.16200
H677        H  0.74913999  0.13375843  0.11571949     0.18800
C678        C  0.66696676  0.23233453  0.11627586    -0.28800
H679        H  0.63018963  0.25135260  0.11911953     0.18800
H680        H  0.68961101  0.30475186  0.19665342     0.18800
H681        H  0.87629486  0.27660824  0.11867613     0.18900
H682        H  0.81049416  0.18641574  0.19204241     0.18800
C683        C  0.95489222  0.05859550  0.32806104     0.32700
C684        C  0.53661604  0.48653229  0.32833729     0.32700
C685        C  0.94778665  0.00745071  0.33761577    -0.03500
C686        C  0.97739836  0.04661432  0.30133787    -0.04300
C687        C  0.51521621  0.05605793  0.34617085    -0.04100
C688        C  0.99033053  0.46469295  0.34080862    -0.03500
C689        C  0.52480553  0.00120898  0.30050630    -0.04300
C690        C  0.55308526  0.01418418  0.34344325    -0.04100
C691        C  0.96467792  0.42632898  0.34007674    -0.29500
N692        N  0.91666697  0.44544961  0.34009278     0.17000
C693        C  0.90923715  0.98505500  0.34317389    -0.29500
H694        H  0.87173981  0.00309678  0.34374056     0.18900
C695        C  0.53503879  0.99725841  0.27441802    -0.28500
N696        N  0.99909404  0.03492997  0.26032948     0.15700
C697        C  0.96688037  0.06255969  0.27633345    -0.28500
C698        C  0.59575657  0.03130897  0.34389479    -0.28800
N699        N  0.58661437  0.08093306  0.34637184     0.16200
H700        H  0.63059066  0.00983693  0.33862820     0.18800
C701        C  0.53812598  0.09657015  0.34723436    -0.28800
H702        H  0.52040657  0.13480808  0.34456400     0.18800
H703        H  0.93710015  0.09095179  0.26999623     0.18800
H704        H  0.98004695  0.38773454  0.33648068     0.18900
H705        H  0.56155511  0.48003328  0.26888898     0.18800
O706        O  0.67775901  0.38148827  0.33252648    -0.75800
C707        C  0.84060832  0.34592121  0.34593701     0.85300
O708        O  0.74431148  0.23022330  0.28597503    -0.76900
O709        O  0.84373628  0.19007731  0.36626891    -0.78400
O710        O  0.70554318  0.27707565  0.40854424    -0.78200
O711        O  0.64187151  0.34609310  0.36382647    -0.76800
Zn712      Zn  0.74108896  0.33118671  0.32595792     1.55700
O713        O  0.78556338  0.26835913  0.40837686    -0.78200
Cd714      Cd  0.68743375  0.28002828  0.36991319     1.59700
Cd715      Cd  0.74814354  0.20989455  0.32499039     1.59600
O716        O  0.64800484  0.22659692  0.36306936    -0.78200
O717        O  0.74457134  0.27104638  0.34686672    -1.88700
Cd718      Cd  0.80232783  0.25953216  0.36985421     1.59900
O719        O  0.68981539  0.17567610  0.33392802    -0.78200
O720        O  0.84594675  0.30765380  0.36029750    -0.76800
C721        C  0.74081614  0.27255032  0.27501251     0.85700
C722        C  0.64247269  0.38136834  0.34799361     0.85400
O723        O  0.80212721  0.36084824  0.33262119    -0.75800
C724        C  0.74571672  0.27325332  0.42023277     0.86200
O725        O  0.73941341  0.31236393  0.28800563    -0.75900
C726        C  0.65358616  0.18806717  0.34895792     0.86300
C727        C  0.84541243  0.15704097  0.34890189     0.86600
O728        O  0.81336510  0.15986419  0.33107041    -0.78300
C729        C  0.62275508  0.11074071  0.34272483    -0.13700
C730        C  0.61597845  0.15783784  0.35069188    -0.28900
H731        H  0.65733438  0.09353354  0.33461479     0.15300
H732        H  0.58265173  0.17398534  0.36037909     0.15900
C733        C  0.60031953  0.42230596  0.34829754    -0.13700
C734        C  0.58163725  0.44653167  0.32687456    -0.28900
H735        H  0.58122553  0.42995071  0.36655464     0.15300
H736        H  0.59917341  0.43770056  0.30830089     0.15900
C737        C  0.88684262  0.11539927  0.34954673    -0.13700
C738        C  0.90977337  0.09829333  0.32776594    -0.28900
H739        H  0.90200608  0.10218413  0.36825843     0.15300
H740        H  0.89595964  0.11415399  0.30929330     0.15900
C741        C  0.87738649  0.41922392  0.33727251    -0.13700
C742        C  0.88136335  0.37235618  0.34538149    -0.28900
H743        H  0.84268440  0.43935745  0.33045520     0.15300
H744        H  0.91518928  0.35357032  0.35386229     0.15900
C745        C  0.75102150  0.23763888  0.23057172    -0.13700
C746        C  0.73765803  0.27664963  0.24643660    -0.28900
H747        H  0.76631270  0.20153583  0.23874302     0.15300
H748        H  0.72599736  0.31340388  0.23817237     0.15900
C749        C  0.01068669  0.00021846  0.21716242    -0.13700
C750        C  0.99740437  0.03969140  0.23256049    -0.28900
H751        H  0.52435550  0.96701168  0.22501271     0.15300
H752        H  0.98131460  0.07531775  0.22410507     0.15500
C753        C  0.65008287  0.14653789  0.10999061    -0.13700
C754        C  0.60560486  0.15308228  0.12028166    -0.28900
H755        H  0.66489053  0.11151333  0.10062422     0.15300
H756        H  0.59183767  0.18639581  0.13131711     0.15900
C757        C  0.67061921  0.33875158  0.13808542    -0.13700
C758        C  0.65600931  0.36733110  0.11721234    -0.28900
H759        H  0.65119794  0.34578167  0.15625395     0.15300
H760        H  0.67675614  0.36187742  0.09939833     0.15900
C761        C  0.83751840  0.18228982  0.13387856    -0.13700
C762        C  0.84698760  0.14679256  0.11557248    -0.28900
H763        H  0.86415015  0.18406297  0.14896704     0.15300
H764        H  0.82220392  0.14639711  0.09948379     0.15900
C765        C  0.85131329  0.38305809  0.11277267    -0.13700
C766        C  0.89726183  0.37809617  0.12079211    -0.28900
H767        H  0.83328202  0.41826100  0.10459551     0.15300
H768        H  0.91419292  0.34445534  0.13083736     0.15900
C769        C  0.50005252  0.02091035  0.94074845    -0.15800
C770        C  0.00971014  0.01483582  0.96450528     0.08300
C771        C  0.00963758  0.01237052  0.99191371     0.10100
C772        C  0.00871401  0.01103373  0.01531836    -0.16600
C773        C  0.64270063  0.15257874  0.84421394    -0.13700
C774        C  0.59742212  0.16125681  0.83472755    -0.28900
H775        H  0.65820765  0.11596991  0.85172288     0.15300
H776        H  0.58295020  0.19615397  0.82511888     0.15900
C777        C  0.84341697  0.16585562  0.84535017    -0.13700
C778        C  0.82632822  0.19566767  0.82538253    -0.28900
H779        H  0.82507517  0.17071602  0.86392740     0.15300
H780        H  0.84330386  0.18943905  0.80649891     0.15900
C781        C  0.65116629  0.38815130  0.85076562    -0.13700
C782        C  0.65967689  0.35049653  0.83383224    -0.28900
H783        H  0.67701976  0.39159886  0.86593375     0.15300
H784        H  0.63194103  0.34628630  0.81975986     0.15900
C785        C  0.84754337  0.39006930  0.84975507    -0.13700
C786        C  0.89118599  0.38361843  0.83852863    -0.28900
H787        H  0.83255105  0.42573548  0.85842027     0.15300
H788        H  0.90555952  0.34918727  0.82857835     0.15900
C789        C  0.48158574  0.03963174  0.71968935    -0.13700
C790        C  0.49636279  0.00337352  0.73717933    -0.28900
H791        H  0.96247064  0.08315696  0.73030077     0.15300
H792        H  0.51082727  0.47055649  0.73611574     0.15900
C793        C  0.74623010  0.27323119  0.44783609    -0.15800
C794        C  0.74667409  0.27111693  0.47106789     0.08300
C795        C  0.74665811  0.26772907  0.49817973     0.10100
C796        C  0.74577511  0.26577054  0.52140543    -0.16600
C797        C  0.74366548  0.25611011  0.72042652    -0.13700
C798        C  0.73334846  0.29532602  0.73625503    -0.28900
H799        H  0.75571538  0.21920688  0.72844840     0.15300
H800        H  0.71828160  0.33179436  0.72843773     0.15900
C801        C  0.89786976  0.14224937  0.62827736    -0.13700
C802        C  0.90185098  0.09430302  0.62202271    -0.28900
H803        H  0.92856559  0.15640086  0.63577843     0.15300
H804        H  0.87050929  0.08165533  0.61418451     0.15900
C805        C  0.58091205  0.40671788  0.61795589    -0.13700
C806        C  0.56468546  0.43578540  0.63820343    -0.28900
H807        H  0.56312550  0.41350586  0.59918960     0.15300
H808        H  0.58109341  0.42775665  0.65721704     0.15900
C809        C  0.83395043  0.41496304  0.62074807    -0.13700
C810        C  0.87604378  0.40868865  0.60792636    -0.28900
H811        H  0.82181644  0.44846023  0.63196917     0.15300
H812        H  0.88940248  0.37350475  0.59834910     0.15900
C813        C  0.63508019  0.12705888  0.61663712    -0.13700
C814        C  0.59280639  0.13170098  0.60397433    -0.28900
H815        H  0.64859273  0.09364647  0.62775108     0.15300
H816        H  0.57829287  0.16644602  0.59415989     0.15900
O817        O  0.67793952  0.68272818  0.63073422    -0.75800
C818        C  0.83318073  0.65743916  0.62712308     0.85300
O819        O  0.74466266  0.80063752  0.68625639    -0.76900
O820        O  0.83716631  0.81885109  0.60907060    -0.78400
O821        O  0.70412529  0.79210927  0.56138155    -0.78200
O822        O  0.63910368  0.73760076  0.60230572    -0.76800
Zn823      Zn  0.73427512  0.71151080  0.64320165     1.55700
O824        O  0.78325249  0.76150812  0.56309767    -0.78200
Cd825      Cd  0.68250172  0.79065374  0.60024908     1.59700
Cd826      Cd  0.74093069  0.82550549  0.64889369     1.59600
O827        O  0.64211850  0.85837069  0.61261651    -0.78200
O828        O  0.73924558  0.77102618  0.62367043    -1.88700
Cd829      Cd  0.79959386  0.76103569  0.60267702     1.59900
O830        O  0.68093518  0.87973212  0.64735194    -0.78200
O831        O  0.84172887  0.69302092  0.61291069    -0.76800
C832        C  0.73668317  0.76037642  0.69595542     0.85700
C833        C  0.64342985  0.69686371  0.61480170     0.85400
O834        O  0.79347606  0.65970443  0.63889876    -0.75800
C835        C  0.74452409  0.77675088  0.55026631     0.86200
O836        O  0.72959652  0.72426184  0.68187526    -0.75900
C837        C  0.64572082  0.88754532  0.63164175     0.86300
C838        C  0.82983606  0.85543933  0.62483222     0.86600
O839        O  0.79594660  0.86144583  0.64126036    -0.78300
C840        C  0.52465179  0.97917502  0.62610819     0.32700
C841        C  0.95124734  0.56080485  0.62140421     0.32700
C842        C  0.98706383  0.96945575  0.61949339    -0.03500
C843        C  0.50487948  0.00210836  0.65223638    -0.04300
C844        C  0.54148353  0.52272492  0.61879742    -0.04100
C845        C  0.94523142  0.00464406  0.61658948    -0.03500
C846        C  0.97035951  0.54646271  0.64896471    -0.04300
C847        C  0.50590660  0.56556519  0.61536814    -0.04100
C848        C  0.90841353  0.97915738  0.61205057    -0.29500
N849        N  0.92722880  0.92974567  0.61165031     0.17000
C850        C  0.97515646  0.92338713  0.61622057    -0.29500
H851        H  0.99854036  0.88779643  0.61941058     0.18900
C852        C  0.95960088  0.56343060  0.67378996    -0.28500
N853        N  0.48635340  0.53839733  0.69900887     0.15700
C854        C  0.51445435  0.99546321  0.67855558    -0.28500
C855        C  0.52972395  0.60496054  0.61358016    -0.28800
N856        N  0.57778882  0.58806006  0.61533285     0.16200
H857        H  0.51278756  0.64367592  0.61491989     0.18800
C858        C  0.58517586  0.53844831  0.61922790    -0.28800
H859        H  0.61928574  0.51619974  0.62525649     0.18800
H860        H  0.54256189  0.96785867  0.68717385     0.18800
H861        H  0.87037527  0.99497249  0.61092149     0.18900
H862        H  0.93252465  0.59522285  0.67912602     0.18800
O863        O  0.57407058  0.92122134  0.82558090    -0.75800
C864        C  0.92084539  0.92584083  0.84382350     0.85300
O865        O  0.48566047  0.55755382  0.78161932    -0.76900
O866        O  0.89020612  0.58758582  0.85631785    -0.78400
O867        O  0.53353156  0.53348302  0.90537073    -0.78200
O868        O  0.60942005  0.96941176  0.85120771    -0.76800
Zn869      Zn  0.50634497  0.95919573  0.81918235     1.55700
O870        O  0.95538689  0.51777930  0.89992166    -0.78200
Cd871      Cd  0.55185592  0.52703908  0.86670006     1.59700
Cd872      Cd  0.48317828  0.58127422  0.81985158     1.59600
O873        O  0.58296739  0.58585073  0.85613472    -0.78200
O874        O  0.49514784  0.52286932  0.84408845    -1.88700
Cd875      Cd  0.93806481  0.52178250  0.86076764     1.59900
O876        O  0.53538102  0.62467491  0.82481017    -0.78200
O877        O  0.90804873  0.96472907  0.85760163    -0.76800
C878        C  0.49599967  0.51412739  0.77187519     0.85700
C879        C  0.61101902  0.93081017  0.83737118     0.85400
O880        O  0.95838822  0.91993118  0.82965796    -0.75800
C881        C  0.49513518  0.52967037  0.91730944     0.86200
O882        O  0.50213008  0.97307228  0.78036916    -0.75900
C883        C  0.57221955  0.62074244  0.83959652     0.86300
C884        C  0.88633517  0.62373718  0.84048135     0.86600
O885        O  0.91637257  0.62503005  0.82212883    -0.78300
C886        C  0.78554617  0.73852608  0.83035079     0.32700
C887        C  0.70702230  0.81104205  0.83777837     0.32700
C888        C  0.79420288  0.78193311  0.84750419    -0.03500
C889        C  0.76312822  0.76469472  0.80585578    -0.04300
C890        C  0.74237875  0.72174078  0.84312086    -0.04100
C891        C  0.75342246  0.81943556  0.85168572    -0.03500
C892        C  0.72307564  0.80196502  0.80952698    -0.04300
C893        C  0.70204208  0.75901871  0.84684874    -0.04100
C894        C  0.77071725  0.86272635  0.85600835    -0.29500
N895        N  0.81940257  0.85336251  0.85445622     0.17000
C896        C  0.83390936  0.80454432  0.84879255    -0.29500
H897        H  0.87020331  0.78719236  0.84356374     0.18900
C898        C  0.70590561  0.81785641  0.78531125    -0.28500
N899        N  0.73401566  0.79025270  0.76734962     0.15700
C900        C  0.76910262  0.75777792  0.77965525    -0.28500
C901        C  0.66278277  0.73594779  0.84821579    -0.28800
N902        N  0.67820578  0.68626599  0.84630812     0.16200
H903        H  0.62536416  0.75414982  0.84885146     0.18800
C904        C  0.72648374  0.67717996  0.84282964    -0.28800
H905        H  0.74772491  0.64124890  0.83800456     0.18800
H906        H  0.79635678  0.73071826  0.77016792     0.18800
H907        H  0.74916805  0.89963502  0.85745452     0.18900
H908        H  0.67434527  0.84579211  0.78102014     0.18800
O909        O  0.53898706  0.61129160  0.13473829    -0.75800
C910        C  0.88736074  0.61910832  0.11377558     0.85300
O911        O  0.00483508  0.48614300  0.17753682    -0.76900
O912        O  0.91352351  0.94865091  0.09958541    -0.78400
O913        O  0.54087212  0.51501130  0.05859419    -0.78200
O914        O  0.59098483  0.57012642  0.10634876    -0.76800
Zn915      Zn  0.98796441  0.58168846  0.13509986     1.55700
O916        O  0.95727048  0.51561886  0.05452239    -0.78200
Cd917      Cd  0.56016503  0.50927485  0.09742502     1.59700
Cd918      Cd  0.01268701  0.94669889  0.13743445     1.59600
O919        O  0.60677042  0.95517446  0.09766552    -0.78200
O920        O  0.99862081  0.52021838  0.11524218    -1.88700
Cd921      Cd  0.93989452  0.51750908  0.09368492     1.59900
O922        O  0.57731229  0.91315150  0.12868789    -0.78200
O923        O  0.88774266  0.58121595  0.09937968    -0.76800
C924        C  0.99574309  0.52964482  0.18730442     0.85700
C925        C  0.57682437  0.60749515  0.12099555     0.85400
O926        O  0.92312766  0.62362260  0.12803629    -0.75800
C927        C  0.99592368  0.51747540  0.04222331     0.86200
O928        O  0.98928991  0.56841654  0.17326158    -0.75900
C929        C  0.61020821  0.91771215  0.11265528     0.86300
C930        C  0.92399700  0.91132640  0.11478044     0.86600
O931        O  0.96030490  0.90552365  0.12995593    -0.78300
C932        C  0.70960858  0.80433179  0.13061715     0.32700
C933        C  0.78811656  0.73000141  0.13346184     0.32700
C934        C  0.75268393  0.81183419  0.11368232    -0.03500
C935        C  0.73276242  0.79500090  0.15761657    -0.04300
C936        C  0.70133626  0.75258131  0.12296184    -0.04100
C937        C  0.79322987  0.77298469  0.11513353    -0.03500
C938        C  0.77268034  0.75666438  0.15926684    -0.04300
C939        C  0.74149970  0.71488154  0.12423637    -0.04100
C940        C  0.83325642  0.79409836  0.11116636    -0.29500
N941        N  0.81911949  0.84348343  0.10708616     0.17000
C942        C  0.77069484  0.85470251  0.10923924    -0.29500
H943        H  0.75079924  0.89231717  0.11100601     0.18900
C944        C  0.78371325  0.74967966  0.18534653    -0.28500
N945        N  0.75199781  0.78322282  0.19928473     0.15700
C946        C  0.72109131  0.81121773  0.18246809    -0.28500
C947        C  0.72638838  0.67079112  0.11993217    -0.28800
N948        N  0.67798235  0.68058436  0.11646682     0.16200
H949        H  0.74841843  0.63397646  0.12085400     0.18800
C950        C  0.66209345  0.73049683  0.11834781    -0.28800
H951        H  0.62480050  0.74913438  0.11735450     0.18800
H952        H  0.69076416  0.83953055  0.18806123     0.18800
H953        H  0.87020206  0.77529051  0.11383767     0.18900
H954        H  0.81179292  0.72151708  0.19355645     0.18800
C955        C  0.97013859  0.55310475  0.32638335     0.32700
C956        C  0.54217250  0.97285773  0.32560090     0.32700
C957        C  0.95538413  0.50885694  0.34027211    -0.03500
C958        C  0.98695783  0.53107249  0.29977338    -0.04300
C959        C  0.50011785  0.56869172  0.34739526    -0.04100
C960        C  0.98852143  0.97022215  0.33718725    -0.03500
C961        C  0.51983311  0.51245868  0.30258942    -0.04300
C962        C  0.54113494  0.53024444  0.34620447    -0.04100
C963        C  0.97436059  0.92622235  0.34296240    -0.29500
N964        N  0.92600221  0.93553452  0.34645105     0.17000
C965        C  0.91092258  0.49528579  0.33964473    -0.29500
H966        H  0.87685941  0.52000594  0.33602230     0.18900
C967        C  0.53223365  0.50687577  0.27684953    -0.28500
N968        N  0.00278730  0.50395169  0.25954216     0.15700
C969        C  0.97582522  0.54060856  0.27391642    -0.28500
C970        C  0.58101287  0.55161533  0.34970757    -0.28800
N971        N  0.56688314  0.60114562  0.35277869     0.16200
H972        H  0.61787263  0.53258336  0.34728770     0.18800
C973        C  0.51822078  0.61200801  0.35078510    -0.28800
H974        H  0.49793072  0.64941437  0.34860032     0.18800
H975        H  0.94929474  0.57087798  0.26622477     0.18800
H976        H  0.99692923  0.88964713  0.34288846     0.18900
H977        H  0.56215331  0.96938082  0.26540047     0.18800
O978        O  0.67473944  0.85999710  0.32606384    -0.75800
C979        C  0.82655997  0.86008764  0.34270220     0.85300
O980        O  0.76475757  0.71297593  0.28491005    -0.76900
O981        O  0.86516065  0.69872509  0.36236626    -0.78400
O982        O  0.71487999  0.76416505  0.40743116    -0.78200
O983        O  0.64637193  0.82769170  0.36109661    -0.76800
Zn984      Zn  0.74154139  0.81767901  0.32091529     1.55700
O985        O  0.79347724  0.76617633  0.40744643    -0.78200
Cd986      Cd  0.69662540  0.76370519  0.36813900     1.59700
Cd987      Cd  0.76590466  0.69836342  0.32442019     1.59600
O988        O  0.66363469  0.70372361  0.36058952    -0.78200
O989        O  0.75405009  0.76127935  0.34511106    -1.88700
Cd990      Cd  0.81188304  0.76215534  0.36800173     1.59900
O991        O  0.71285903  0.65739812  0.33246622    -0.78200
O992        O  0.84022432  0.82450255  0.35867464    -0.76800
C993        C  0.75790561  0.75315521  0.27186402     0.85700
C994        C  0.64242260  0.86053131  0.34333035     0.85400
O995        O  0.78995316  0.86169407  0.32793955    -0.75800
C996        C  0.75405674  0.76610310  0.41942934     0.86200
O997        O  0.74842725  0.79550354  0.28294323    -0.75900
C998        C  0.67491697  0.66521267  0.34637752     0.86300
C999        C  0.86830783  0.66164583  0.34706453     0.86600
O1000       O  0.83396557  0.65640726  0.33177262    -0.78300
C1001       C  0.59759167  0.63752331  0.35424855    -0.13700
C1002       C  0.64343405  0.62798509  0.34572346    -0.28900
H1003       H  0.58233736  0.67434238  0.36145721     0.15300
H1004       H  0.65795737  0.59257052  0.33679586     0.15900
C1005       C  0.59975781  0.90095091  0.34382309    -0.13700
C1006       C  0.58348513  0.92897592  0.32303333    -0.28900
H1007       H  0.58087584  0.90812535  0.36216581     0.15300
H1008       H  0.60092120  0.92116924  0.30435661     0.15900
C1009       C  0.91268945  0.62296301  0.34747460    -0.13700
C1010       C  0.93031652  0.59887110  0.32575962    -0.28900
H1011       H  0.93075168  0.61341201  0.36595698     0.15300
H1012       H  0.91343059  0.61046428  0.30720645     0.15900
C1013       C  0.89821768  0.89743691  0.35065780    -0.13700
C1014       C  0.85358376  0.90100836  0.34085350    -0.28900
H1015       H  0.91568244  0.86316593  0.36000254     0.15300
H1016       H  0.83752857  0.93369053  0.32977087     0.15900
C1017       C  0.74899176  0.78832019  0.22715557    -0.13700
C1018       C  0.76214424  0.74936701  0.24320806    -0.28900
H1019       H  0.73276662  0.82417762  0.23519307     0.15300
H1020       H  0.77538041  0.71288896  0.23503373     0.15900
C1021       C  0.99222154  0.53614936  0.21563533    -0.13700
C1022       C  0.00267520  0.49756689  0.23192253    -0.28900
H1023       H  0.52418320  0.46844919  0.22874860     0.15300
H1024       H  0.01497623  0.46046986  0.22420318     0.15500
C1025       C  0.64957815  0.64272282  0.11311185    -0.13700
C1026       C  0.60460469  0.64789804  0.12238499    -0.28900
H1027       H  0.66673221  0.60749312  0.10471644     0.15300
H1028       H  0.58864152  0.68172564  0.13246852     0.15900
C1029       C  0.66409132  0.84351956  0.12996280    -0.13700
C1030       C  0.65388409  0.87881244  0.11151756    -0.28900
H1031       H  0.63809661  0.84170215  0.14523848     0.15300
H1032       H  0.67794043  0.87977354  0.09530195     0.15900
C1033       C  0.83152991  0.68827796  0.13437976    -0.13700
C1034       C  0.84454247  0.65915668  0.11356698    -0.28900
H1035       H  0.85233754  0.68184240  0.15225634     0.15300
H1036       H  0.82233861  0.66408506  0.09613187     0.15900
C1037       C  0.84927541  0.88013886  0.10489142    -0.13700
C1038       C  0.89378060  0.87299743  0.11522514    -0.28900
H1039       H  0.83410599  0.91575983  0.09613327     0.15300
H1040       H  0.90773792  0.83892237  0.12567901     0.15900
C1041       C  0.49570218  0.52989502  0.94508253    -0.15800
C1042       C  0.99212718  0.52352723  0.96353475     0.08300
C1043       C  0.99316640  0.52084602  0.99094173     0.10100
C1044       C  0.99437884  0.51877785  0.01434188    -0.16600
C1045       C  0.64876316  0.64899156  0.84652304    -0.13700
C1046       C  0.60303505  0.65823874  0.83776999    -0.28900
H1047       H  0.66465526  0.61209848  0.85350174     0.15300
H1048       H  0.58821339  0.69365556  0.82876483     0.15900
C1049       C  0.84613204  0.66559771  0.84453690    -0.13700
C1050       C  0.82882955  0.69790191  0.82574892    -0.28900
H1051       H  0.82869488  0.66871920  0.86338647     0.15300
H1052       H  0.84471654  0.69349284  0.80654094     0.15900
C1053       C  0.65724235  0.89661013  0.83459429    -0.13700
C1054       C  0.66161830  0.84920447  0.84180978    -0.28900
H1055       H  0.68755373  0.91040811  0.82648882     0.15300
H1056       H  0.63061534  0.83753095  0.85049238     0.15900
C1057       C  0.84845748  0.89138270  0.85542727    -0.13700
C1058       C  0.89190409  0.88607190  0.84397387    -0.28900
H1059       H  0.83332113  0.92648504  0.86461822     0.15300
H1060       H  0.90622688  0.85222666  0.83352513     0.15900
C1061       C  0.48345083  0.54542703  0.72671850    -0.13700
C1062       C  0.49783120  0.50773240  0.74342940    -0.28900
H1063       H  0.96844398  0.57690158  0.72592621     0.15300
H1064       H  0.51001931  0.96595591  0.73033807     0.15900
C1065       C  0.75346905  0.76866257  0.44753388    -0.15800
C1066       C  0.75171939  0.77121155  0.47105036     0.08300
C1067       C  0.74893188  0.77412064  0.49864614     0.10100
C1068       C  0.74657398  0.77598941  0.52216145    -0.16600
C1069       C  0.73698371  0.75512289  0.72427862    -0.13700
C1070       C  0.72791835  0.79505809  0.73981991    -0.28900
H1071       H  0.74524759  0.71806147  0.73258148     0.15300
H1072       H  0.71560285  0.83182288  0.73163328     0.15900
C1073       C  0.87001721  0.61210643  0.63054736    -0.13700
C1074       C  0.91236006  0.60640210  0.61843670    -0.28900
H1075       H  0.86247822  0.58313285  0.64340945     0.15300
H1076       H  0.91898262  0.63572249  0.60559680     0.15900
C1077       C  0.60802545  0.93179181  0.63594650    -0.13700
C1078       C  0.56441482  0.93408440  0.62556304    -0.28900
H1079       H  0.61576967  0.96206097  0.64784100     0.15300
H1080       H  0.55796586  0.90213181  0.61462320     0.15900
C1081       C  0.85935893  0.89409025  0.62408243    -0.13700
C1082       C  0.90054201  0.89013331  0.61088724    -0.28900
H1083       H  0.84680514  0.92745283  0.63536782     0.15300
H1084       H  0.91581181  0.85567018  0.60113885     0.15900
C1085       C  0.60708661  0.66554016  0.61061493    -0.13700
C1086       C  0.61410043  0.61796224  0.61855194    -0.28900
H1087       H  0.57432217  0.68170410  0.60026521     0.15300
H1088       H  0.64824771  0.60111219  0.62744701     0.15900
loop_ 
_geom_bond_atom_site_label_1 
_geom_bond_atom_site_label_2 
_geom_bond_distance 
_geom_bond_site_symmetry_2 
_ccdc_geom_bond_type 
O1           C17   1.270       .  A
O1           Zn7   1.994       .  S
C2           O18   1.267       .  A
C2           O15   1.275       .  A
C2          C257   1.471       .  S
O3           C16   1.273       .  A
O3          Cd10   2.052       .  S
O4           C22   1.274       .  A
O4          Cd13   2.080       .  S
O5           C19   1.278       .  A
O5           Cd9   2.092       .  S
O6           C17   1.279       .  A
O6           Cd9   2.105       .  S
Zn7          O18   1.993       .  S
Zn7          O20   1.985       .  S
Zn7          O12   1.939       .  S
O8           C19   1.273       .  A
O8          Cd13   2.058       .  S
Cd9          O11   2.107       .  S
Cd9          O12   2.004       .  S
Cd10         O14   2.055       .  S
Cd10         O23   2.068       .  S
Cd10         O12   1.997       .  S
O11          C21   1.283       .  A
O12         Cd13   1.991       .  S
Cd13         O15   2.064       .  S
O14          C21   1.271       .  A
C16          O20   1.270       .  A
C16         C253   1.458       .  S
C17         C269   1.478       .  S
C19         C252   1.435       .  S
C21         C261   1.483       .  S
C22          O23   1.274       .  A
C22         C265   1.478       .  S
C24          C27   1.547       .  S
C24         C570   1.540   1_455  S
C24         C300   1.544       .  S
C24         C262   1.517       .  S
C25          C30   1.539       .  S
C25         C301   1.533       .  S
C25         C575   1.536       .  S
C25         C258   1.504       .  S
C26         C568   1.536       .  S
C26          C34   1.380       .  A
C26          C29   1.401       .  A
C27          C38   1.388       .  A
C27         C846   1.395   1_455  A
C28         C296   1.541   1_545  S
C28          C42   1.384       .  A
C28          C31   1.414   1_455  A
C29         C297   1.540       .  S
C29          C32   1.382       .  A
C30          C36   1.376       .  A
C30         C843   1.394       .  A
C31         C569   1.547       .  S
C31          C39   1.385   1_655  A
C32          N33   1.354       .  A
C32          H45   1.082       .  S
N33          C34   1.356       .  A
N33         C266   1.439       .  S
C34          H35   1.082       .  S
C36         N581   1.358       .  A
C36          H46   1.082       .  S
N37         C580   1.358       .  A
N37         C310   1.361   1_655  A
N37         C245   1.440       .  S
C38         N309   1.368   1_455  A
C38          H44   1.082       .  S
C39          N40   1.349       .  A
C39          H41   1.080   1_455  S
N40          C42   1.357       .  A
N40         C270   1.442       .  S
C42          H43   1.082       .  S
O47          C63   1.278       .  A
O47         Zn53   2.031       .  S
C48          O64   1.275       .  A
C48          O61   1.276       .  A
C48         C242   1.480       .  S
O49          C62   1.276       .  A
O49         Cd56   2.077       .  S
O50          C68   1.274       .  A
O50         Cd59   2.066       .  S
O51          C65   1.274       .  A
O51         Cd55   2.075       .  S
O52          C63   1.269       .  A
O52        Cd327   2.045       .  S
Zn53         O66   2.047       .  S
Zn53        O608   2.041   1_455  S
Zn53        O330   1.946   1_455  S
O54         C609   1.272       .  A
O54         Cd59   2.071       .  S
Cd55         O57   2.051       .  S
Cd55        O324   2.057   1_545  S
Cd55         O58   1.999   1_455  S
Cd56         O60   2.085   1_655  S
Cd56        O613   2.078       .  S
Cd56         O58   2.008       .  S
O57          C67   1.273       .  A
O58        Zn325   1.945   1_645  S
O58        Cd603   2.000       .  S
Cd59        O333   2.072   1_545  S
Cd59        O602   2.001       .  S
O60          C67   1.275       .  A
O61        Cd331   2.073       .  S
C62         O338   1.275   1_645  A
C62         C246   1.478       .  S
C63         C237   1.472       .  S
O64        Zn597   2.029       .  S
C65         O598   1.274   1_455  A
C65         C225   1.436       .  S
O66         C334   1.277   1_455  A
C67         C230   1.474       .  S
C68          O69   1.279       .  A
C68         C233   1.478       .  S
O69        Cd600   2.087       .  S
C70          C72   1.545       .  S
C70          C74   1.532       .  S
C70          C73   1.529       .  S
C70         C234   1.514       .  S
C71          C75   1.550       .  S
C71          C77   1.524       .  S
C71          C76   1.523       .  S
C71         C238   1.509       .  S
C72          C80   1.385       .  A
C72          C75   1.426       .  A
C73          C84   1.370       .  A
C73          C76   1.386       .  A
C74          C88   1.378       .  A
C74          C77   1.382       .  A
C75          C78   1.385       .  A
C76          C82   1.371       .  A
C77          C85   1.375       .  A
C78          N79   1.349       .  A
C78          H91   1.082       .  S
N79          C80   1.353       .  A
N79         C241   1.441       .  S
C80          H81   1.082       .  S
C82          N83   1.352       .  A
C82          H92   1.083       .  S
N83          C84   1.358       .  A
N83         C254   1.426       .  S
C84          H90   1.082       .  S
C85          N86   1.357       .  A
C85          H87   1.082       .  S
N86          C88   1.358       .  A
N86         C229   1.436       .  S
C88          H89   1.082       .  S
O93         C109   1.274       .  A
O93        Zn643   2.019   1_455  S
C94         O110   1.277       .  A
C94         O107   1.277       .  A
C94         C218   1.479       .  S
O95         C108   1.269   1_565  A
O95        Cd374   2.043       .  S
O96         C114   1.276       .  A
O96        Cd377   2.076       .  S
O97         C655   1.274       .  A
O97        Cd101   2.075       .  S
O98         C109   1.278       .  A
O98        Cd101   2.084       .  S
Zn99        O110   2.041       .  S
Zn99        O112   2.046       .  S
Zn99        O637   2.039       .  S
Zn99        O104   1.962       .  S
O100        C111   1.276       .  A
O100       Cd105   2.091       .  S
Cd101       O375   2.087   1_545  S
Cd101       O648   2.007       .  S
Cd102       O115   2.066       .  S
Cd102       O367   2.046       .  S
Cd102       O650   2.057       .  S
Cd102       O376   1.993       .  S
O103        C113   1.276       .  A
O103       Cd373   2.080       .  S
O104       Cd105   2.007       .  S
O104       Cd645   2.004       .  S
O104       Cd374   1.990   1_545  S
Cd105       O107   2.081       .  S
Cd105       O368   2.097   1_545  S
O106        C113   1.275       .  A
O106       Cd646   2.074       .  S
C108        O112   1.277       .  A
C108        C205   1.472       .  S
C109        C210   1.478       .  S
C111        O641   1.274       .  A
C111        C228   1.441       .  S
C113        C214   1.479       .  S
C114        O115   1.273       .  A
C114        C222   1.475       .  S
C116        C118   1.547       .  S
C116        C120   1.535       .  S
C116        C119   1.535       .  S
C116        C213   1.520       .  S
C117        C121   1.538       .  S
C117        C123   1.530       .  S
C117        C122   1.538       .  S
C117        C217   1.518       .  S
C118        C126   1.385       .  A
C118        C121   1.413       .  A
C119        C130   1.376       .  A
C119        C122   1.392       .  A
C120        C134   1.381       .  A
C120        C123   1.387       .  A
C121        C124   1.381       .  A
C122        C128   1.379       .  A
C123        C131   1.375       .  A
C124        N125   1.354       .  A
C124        H137   1.082       .  S
N125        C126   1.350       .  A
N125        C221   1.440       .  S
C126        H127   1.082       .  S
C128        N129   1.363       .  A
C128        H138   1.082       .  S
N129        C130   1.357       .  A
N129        C201   1.441       .  S
C130        H136   1.082       .  S
C131        N132   1.355       .  A
C131        H133   1.083       .  S
N132        C134   1.362       .  A
N132        C209   1.440       .  S
C134        H135   1.082       .  S
C139        C141   1.532       .  S
C139        C142   1.530       .  S
C139        C687   1.550       .  S
C139        C194   1.518       .  S
C140        C688   1.542   1_455  S
C140        C418   1.536       .  S
C140        C417   1.524       .  S
C140        C190   1.518       .  S
C141        C149   1.377   1_545  A
C141        C416   1.384   1_545  A
C142        C153   1.374       .  A
C142        C689   1.391       .  A
C143        C683   1.548       .  S
C143        C157   1.387   1_655  A
C143        C146   1.409   1_655  A
C144        C684   1.533       .  S
C144        C147   1.379       .  A
C144        C413   1.388       .  A
C145        C412   1.538   1_545  S
C145        C151   1.379       .  A
C145        C686   1.390   1_455  A
C146        C412   1.536   1_545  S
C146        C154   1.377       .  A
C147        N148   1.359       .  A
C147        H160   1.082       .  S
N148        C421   1.361       .  A
N148        C197   1.442       .  S
C149        N420   1.360       .  A
C149        H150   1.082   1_565  S
C151        N696   1.363   1_455  A
C151        H433   1.082   1_545  S
N152        C153   1.355       .  A
N152        C695   1.363   1_545  A
N152        C206   1.438       .  S
C153        H159   1.082       .  S
C154        N155   1.355       .  A
C154        H156   1.081       .  S
N155        C157   1.358       .  A
N155        C185   1.445       .  S
C157        H158   1.083   1_455  S
H161        C423   1.082       .  S
O162        C178   1.279       .  A
O162       Zn168   2.051       .  S
C163        O179   1.276       .  A
C163        O176   1.277       .  A
C163        C198   1.480       .  S
O164        C177   1.273       .  A
O164       Cd171   2.066       .  S
O165        C183   1.276       .  A
O165       Cd174   2.093       .  S
O166        C180   1.273       .  A
O166       Cd170   2.062       .  S
O167        C178   1.271       .  A
O167       Cd170   2.066       .  S
Zn168       O179   2.036       .  S
Zn168       O181   2.041       .  S
Zn168       O173   1.957       .  S
O169        C180   1.277       .  A
O169       Cd174   2.089       .  S
Cd170       O172   2.078       .  S
Cd170       O173   2.004       .  S
Cd171       O175   2.085       .  S
Cd171       O184   2.078       .  S
Cd171       O173   1.999       .  S
O172        C182   1.276       .  A
O173       Cd174   2.014       .  S
Cd174       O176   2.078       .  S
O175        C182   1.277       .  A
C177        O181   1.277       .  A
C177        C202   1.479       .  S
C178        C189   1.480       .  S
C180        C249   1.436       .  S
C182        C186   1.480       .  S
C183        O184   1.277       .  A
C183        C193   1.487       .  S
C185        C186   1.350       .  D
C185        H187   1.087       .  S
C186        H188   1.084       .  S
C189        C190   1.340       .  D
C189        H191   1.086       .  S
C190        H192   1.086       .  S
C193        C194   1.347       .  D
C193        H195   1.085       .  S
C194        H196   1.087       .  S
C197        C198   1.347       .  D
C197        H199   1.087       .  S
C198        H200   1.085       .  S
C201        C202   1.344       .  D
C201        H203   1.087       .  S
C202        H204   1.085       .  S
C205        C206   1.340       .  D
C205        H751   1.086   1_545  S
C206        H208   1.087       .  S
H207        C749   1.086   1_565  S
C209        C210   1.343       .  D
C209        H211   1.087       .  S
C210        H212   1.086       .  S
C213        C214   1.348       .  D
C213        H215   1.086       .  S
C214        H216   1.083       .  S
C217        C218   1.347       .  D
C217        H219   1.086       .  S
C218        H220   1.087       .  S
C221        C222   1.343       .  D
C221        H223   1.087       .  S
C222        H224   1.085       .  S
C225        C770   1.206       .  T
C226        C769   1.209       .  T
C226        C227   1.418       .  S
C227        C228   1.209   1_556  T
C229        C230   1.346       .  D
C229        H231   1.087       .  S
C230        H232   1.085       .  S
C233        C234   1.341       .  D
C233        H235   1.087       .  S
C234        H236   1.086       .  S
C237        C238   1.337       .  D
C237        H239   1.083       .  S
C238        H240   1.087       .  S
C241        C242   1.346       .  D
C241        H243   1.087       .  S
C242        H244   1.085       .  S
C245        C246   1.345       .  D
C245        H791   1.087       .  S
C246        H520   1.086   1_645  S
H247        C789   1.087       .  S
H248        C518   1.085       .  S
C249        C250   1.206       .  T
C250        C251   1.413       .  S
C251        C252   1.206       .  T
C253        C254   1.336       .  D
C253        H255   1.087       .  S
C254        H256   1.087       .  S
C257        C258   1.335       .  D
C257        H259   1.087       .  S
C258        H260   1.085       .  S
C261        C262   1.337       .  D
C261        H263   1.086       .  S
C262        H264   1.085       .  S
C265        C266   1.345       .  D
C265        H267   1.086       .  S
C266        H268   1.087       .  S
C269        C270   1.342       .  D
C269        H271   1.086       .  S
C270        H272   1.086       .  S
O273        C289   1.270       .  A
O273       Zn279   2.000       .  S
C274        O290   1.267       .  A
C274        O287   1.278       .  A
C274        C529   1.471       .  S
O275        C288   1.275       .  A
O275       Cd282   2.073       .  S
O276        C294   1.278       .  A
O276       Cd285   2.077       .  S
O277        C291   1.272       .  A
O277       Cd281   2.063       .  S
O278        C289   1.279       .  A
O278       Cd281   2.093       .  S
Zn279       O290   1.979       .  S
Zn279       O292   1.992       .  S
Zn279       O284   1.932       .  S
O280        C291   1.274       .  A
O280       Cd285   2.075       .  S
Cd281       O283   2.084       .  S
Cd281       O284   1.998       .  S
Cd282       O286   2.060       .  S
Cd282       O295   2.063       .  S
Cd282       O284   2.004       .  S
O283        C293   1.277       .  A
O284       Cd285   2.005       .  S
Cd285       O287   2.090       .  S
O286        C293   1.274       .  A
C288        O292   1.270       .  A
C288        C525   1.468       .  S
C289        C541   1.478       .  S
C291        C524   1.434       .  S
C293        C533   1.473       .  S
C294        O295   1.272       .  A
C294        C537   1.477       .  S
C296        C842   1.531   1_455  S
C296        C299   1.533   1_565  S
C296        C534   1.512       .  S
C297        C847   1.535       .  S
C297        C302   1.538       .  S
C297        C530   1.512       .  S
C298        C840   1.535       .  S
C298        C306   1.376       .  A
C298        C301   1.395   1_565  A
C299        C310   1.377       .  A
C299        C574   1.389   1_455  A
C300        C314   1.391       .  A
C300        C303   1.401   1_455  A
C301        C304   1.388   1_545  A
C302        C571   1.387       .  A
C302        C308   1.379       .  A
C303        C841   1.533       .  S
C303        C311   1.376   1_655  A
C304        N305   1.358       .  A
C304        H317   1.082   1_565  S
N305        C306   1.345       .  A
N305        C538   1.435       .  S
C306        H307   1.082       .  S
C308        N853   1.359       .  A
C308        H318   1.082       .  S
N309        C852   1.359       .  A
N309        C517   1.451       .  S
C310        H316   1.082   1_545  S
C311        N312   1.345       .  A
C311        H313   1.082   1_455  S
N312        C314   1.359       .  A
N312        C542   1.436       .  S
C314        H315   1.081       .  S
O319        C335   1.275       .  A
O319       Zn325   2.025       .  S
C320        O336   1.277       .  A
C320        O333   1.276       .  A
C320        C514   1.481       .  S
O321        C334   1.280       .  A
O321       Cd328   2.108       .  S
O322        C340   1.274       .  A
O322       Cd331   2.066       .  S
O323        C337   1.271   1_455  A
O323       Cd327   2.070       .  S
O324        C335   1.270       .  A
Zn325       O880   2.032   1_455  S
Zn325       O338   2.026       .  S
O326        C881   1.272       .  A
O326       Cd331   2.067       .  S
Cd327       O329   2.048       .  S
Cd327       O330   1.997   1_455  S
Cd328       O332   2.086   1_655  S
Cd328       O885   2.088       .  S
Cd328       O330   2.014       .  S
O329        C339   1.273       .  A
O330       Cd875   1.992       .  S
Cd331       O874   1.994       .  S
O332        C339   1.276       .  A
C334        C518   1.494   1_655  S
C335        C509   1.465       .  S
O336       Zn869   2.037       .  S
C337        O870   1.271       .  A
C337        C497   1.437       .  S
C339        C502   1.472       .  S
C340        O341   1.275       .  A
C340        C505   1.470       .  S
O341       Cd872   2.074       .  S
C342        C344   1.537       .  S
C342        C346   1.531       .  S
C342        C345   1.533       .  S
C342        C506   1.511       .  S
C343        C347   1.547       .  S
C343        C349   1.533       .  S
C343        C348   1.531       .  S
C343        C510   1.510       .  S
C344        C352   1.382       .  A
C344        C347   1.412       .  A
C345        C356   1.373       .  A
C345        C348   1.390       .  A
C346        C360   1.378       .  A
C346        C349   1.392       .  A
C347        C350   1.385       .  A
C348        C354   1.374       .  A
C349        C357   1.381       .  A
C350        N351   1.353       .  A
C350        H363   1.081       .  S
N351        C352   1.354       .  A
N351        C513   1.443       .  S
C352        H353   1.081       .  S
C354        N355   1.355       .  A
C354        H364   1.082       .  S
N355        C356   1.361       .  A
N355        C526   1.434       .  S
C356        H362   1.082       .  S
C357        N358   1.355       .  A
C357        H359   1.082       .  S
N358        C360   1.352       .  A
N358        C501   1.434       .  S
C360        H361   1.083       .  S
O365        C381   1.272       .  A
O365       Zn915   2.008   1_455  S
C366        O382   1.275       .  A
C366        O379   1.272       .  A
C366        C490   1.472       .  S
O367        C380   1.270       .  A
O368        C386   1.279       .  A
O369        C927   1.274   1_455  A
O369       Cd373   2.074       .  S
O370        C381   1.276       .  A
O370       Cd373   2.079       .  S
Zn371       O909   2.017       .  S
Zn371       O382   2.027       .  S
Zn371       O384   2.027       .  S
Zn371       O376   1.951       .  S
O372        C383   1.272       .  A
O372       Cd377   2.061       .  S
Cd373       O920   2.003   1_455  S
Cd374       O922   2.044       .  S
Cd374       O387   2.042       .  S
O375        C385   1.276       .  A
O376       Cd917   2.001       .  S
O376       Cd377   1.997       .  S
Cd377       O379   2.057       .  S
O378        C385   1.271       .  A
O378       Cd918   2.051       .  S
C380        O384   1.276       .  A
C380        C477   1.468       .  S
C381        C482   1.474       .  S
C383        O913   1.273       .  A
C383        C500   1.431       .  S
C385        C486   1.471       .  S
C386        O387   1.270       .  A
C386        C494   1.472       .  S
C388        C390   1.526       .  S
C388        C392   1.536       .  S
C388        C391   1.541       .  S
C388        C485   1.510       .  S
C389        C393   1.534       .  S
C389        C395   1.548       .  S
C389        C394   1.531       .  S
C389        C489   1.515       .  S
C390        C398   1.373       .  A
C390        C393   1.385       .  A
C391        C402   1.381       .  A
C391        C394   1.391       .  A
C392        C406   1.379       .  A
C392        C395   1.410       .  A
C393        C396   1.378       .  A
C394        C400   1.375       .  A
C395        C403   1.386       .  A
C396        N397   1.363       .  A
C396        H409   1.082       .  S
N397        C398   1.354       .  A
N397        C493   1.438       .  S
C398        H399   1.082       .  S
C400        N401   1.356       .  A
C400        H410   1.082       .  S
N401        C402   1.364       .  A
N401        C473   1.441       .  S
C402        H408   1.082       .  S
C403        N404   1.351       .  A
C403        H405   1.082       .  S
N404        C406   1.354       .  A
N404        C481   1.440       .  S
C406        H407   1.081       .  S
C411        C413   1.534       .  S
C411        C959   1.552       .  S
C411        C414   1.528       .  S
C411        C466   1.520       .  S
C412        C960   1.528   1_455  S
C412        C462   1.512       .  S
C413        C421   1.379       .  A
C414        C425   1.373       .  A
C414        C961   1.390       .  A
C415        C955   1.536   1_455  S
C415        C429   1.380       .  A
C415        C418   1.405       .  A
C416        C956   1.523       .  S
C416        C419   1.373       .  A
C417        C958   1.388   1_455  A
C417        C423   1.369       .  A
C418        C426   1.381       .  A
C419        N420   1.355       .  A
C419        H432   1.083       .  S
N420        C469   1.435       .  S
C421        H422   1.082       .  S
C423        N968   1.351       .  A
N424        C967   1.361       .  A
N424        C425   1.355       .  A
N424        C478   1.435       .  S
C425        H431   1.083       .  S
C426        N427   1.351       .  A
C426        H428   1.083       .  S
N427        C429   1.357       .  A
N427        C457   1.440       .  S
C429        H430   1.082       .  S
O434        C450   1.273       .  A
O434       Zn440   2.018       .  S
C435        O451   1.274       .  A
C435        O448   1.275       .  A
C435        C470   1.472       .  S
O436        C449   1.278       .  A
O436       Cd443   2.095       .  S
O437        C455   1.272       .  A
O437       Cd446   2.059       .  S
O438        C452   1.273       .  A
O438       Cd442   2.070       .  S
O439        C450   1.273       .  A
O439       Cd442   2.070       .  S
Zn440       O451   2.019       .  S
Zn440       O453   2.006       .  S
Zn440       O445   1.947       .  S
O441        C452   1.272       .  A
O441       Cd446   2.070       .  S
Cd442       O444   2.053       .  S
Cd442       O445   1.996       .  S
Cd443       O447   2.099       .  S
Cd443       O456   2.101       .  S
Cd443       O445   2.019       .  S
O444        C454   1.273       .  A
O445       Cd446   1.998       .  S
Cd446       O448   2.062       .  S
O447        C454   1.280       .  A
C449        O453   1.272       .  A
C449        C474   1.478       .  S
C450        C461   1.473       .  S
C452        C521   1.435       .  S
C454        C458   1.474       .  S
C455        O456   1.280       .  A
C455        C465   1.478       .  S
C457        C458   1.341       .  D
C457        H459   1.087       .  S
C458        H460   1.086       .  S
C461        C462   1.345       .  D
C461        H463   1.087       .  S
C462        H464   1.086       .  S
C465        C466   1.342       .  D
C465        H467   1.084       .  S
C466        H468   1.087       .  S
C469        C470   1.343       .  D
C469        H471   1.087       .  S
C470        H472   1.086       .  S
C473        C474   1.342       .  D
C473        H475   1.087       .  S
C474        H476   1.086       .  S
C477        C478   1.340       .  D
C477       H1023   1.086       .  S
C478        H480   1.087       .  S
H479       C1021   1.086       .  S
C481        C482   1.343       .  D
C481        H483   1.087       .  S
C482        H484   1.084       .  S
C485        C486   1.347       .  D
C485        H487   1.086       .  S
C486        H488   1.086       .  S
C489        C490   1.342       .  D
C489        H491   1.087       .  S
C490        H492   1.083       .  S
C493        C494   1.339       .  D
C493        H495   1.087       .  S
C494        H496   1.085       .  S
C497       C1042   1.207       .  T
C498       C1041   1.203       .  T
C498        C499   1.407       .  S
C499        C500   1.203   1_556  T
C501        C502   1.344       .  D
C501        H503   1.087       .  S
C502        H504   1.086       .  S
C505        C506   1.344       .  D
C505        H507   1.087       .  S
C506        H508   1.086       .  S
C509        C510   1.336       .  D
C509        H511   1.085       .  S
C510        H512   1.086       .  S
C513        C514   1.348       .  D
C513        H515   1.087       .  S
C514        H516   1.084       .  S
C517        C518   1.349   1_655  D
C517       H1063   1.087       .  S
H519       C1061   1.087       .  S
C521        C522   1.205       .  T
C522        C523   1.411       .  S
C523        C524   1.205       .  T
C525        C526   1.339       .  D
C525        H527   1.087       .  S
C526        H528   1.086       .  S
C529        C530   1.336       .  D
C529        H531   1.087       .  S
C530        H532   1.086       .  S
C533        C534   1.346       .  D
C533        H535   1.087       .  S
C534        H536   1.086       .  S
C537        C538   1.340       .  D
C537        H539   1.086       .  S
C538        H540   1.087       .  S
C541        C542   1.339       .  D
C541        H543   1.087       .  S
C542        H544   1.087       .  S
O545        C561   1.273       .  A
O545       Zn551   2.020       .  S
C546        O562   1.272       .  A
C546        O559   1.271       .  A
C546        C801   1.463       .  S
O547        C560   1.276       .  A
O547       Cd554   2.058       .  S
O548        C566   1.272       .  A
O548       Cd557   2.048       .  S
O549        C563   1.272       .  A
O549       Cd553   2.055       .  S
O550        C561   1.277       .  A
O550       Cd553   2.079       .  S
Zn551       O562   2.008       .  S
Zn551       O564   2.000       .  S
Zn551       O556   1.943       .  S
O552        C563   1.272       .  A
O552       Cd557   2.054       .  S
Cd553       O555   2.071       .  S
Cd553       O556   1.991       .  S
Cd554       O558   2.071       .  S
Cd554       O567   2.094       .  S
Cd554       O556   2.001       .  S
O555        C565   1.274       .  A
O556       Cd557   1.986       .  S
Cd557       O559   2.061       .  S
O558        C565   1.276       .  A
C560        O564   1.272       .  A
C560        C797   1.466       .  S
C561        C813   1.480       .  S
C563        C796   1.422       .  S
C565        C805   1.472       .  S
C566        O567   1.275       .  A
C566        C809   1.481       .  S
C568        C844   1.536       .  S
C568        C571   1.531       .  S
C568        C806   1.509       .  S
C569        C845   1.532       .  S
C569        C574   1.537       .  S
C569        C802   1.510       .  S
C570        C578   1.377       .  A
C570        C573   1.394       .  A
C571        C582   1.374       .  A
C572        C840   1.538   1_545  S
C572        C586   1.389       .  A
C572        C575   1.399       .  A
C573        C841   1.530       .  S
C573        C576   1.386       .  A
C574        C580   1.378       .  A
C575        C583   1.378       .  A
C576        N577   1.356       .  A
C576        H589   1.082       .  S
N577        C578   1.350       .  A
N577        C810   1.435       .  S
C578        H579   1.082       .  S
C580        H590   1.083       .  S
N581        C854   1.367   1_545  A
N581        C789   1.448       .  S
C582        N853   1.360       .  A
C582        H588   1.081       .  S
C583        N584   1.348       .  A
C583        H585   1.082       .  S
N584        C586   1.358       .  A
N584        C814   1.440       .  S
C586        H587   1.081       .  S
O591        C607   1.276       .  A
O591       Zn597   2.021       .  S
C592        O608   1.276       .  A
C592        O605   1.275       .  A
C592        C786   1.479       .  S
O593        C606   1.280       .  A
O593       Cd600   2.107       .  S
O594        C612   1.275       .  A
O594       Cd603   2.076       .  S
O595        C609   1.275       .  A
O595       Cd599   2.088       .  S
O596        C607   1.270       .  A
O596       Cd871   2.052       .  S
Zn597       O610   2.023       .  S
Zn597       O874   1.942       .  S
O598       Cd603   2.072       .  S
Cd599       O868   2.058   1_545  S
Cd599       O601   2.046       .  S
Cd599       O602   2.002       .  S
Cd600       O604   2.088       .  S
Cd600       O602   2.014       .  S
O601        C611   1.273       .  A
O602       Zn869   1.947   1_545  S
Cd603       O877   2.082   1_545  S
O604        C611   1.276       .  A
O605       Cd875   2.060       .  S
C606        O882   1.275   1_545  A
C606        C790   1.490       .  S
C607        C781   1.472       .  S
C609        C769   1.441       .  S
O610        C878   1.275       .  A
C611        C774   1.473       .  S
C612        O613   1.277       .  A
C612        C777   1.476       .  S
C614        C616   1.541       .  S
C614        C618   1.533       .  S
C614        C617   1.532       .  S
C614        C778   1.513       .  S
C615        C619   1.546       .  S
C615        C621   1.528       .  S
C615        C620   1.524       .  S
C615        C782   1.510       .  S
C616        C624   1.384       .  A
C616        C619   1.416       .  A
C617        C628   1.375       .  A
C617        C620   1.387       .  A
C618        C632   1.378       .  A
C618        C621   1.393       .  A
C619        C622   1.383       .  A
C620        C626   1.370       .  A
C621        C629   1.377       .  A
C622        N623   1.350       .  A
C622        H635   1.082       .  S
N623        C624   1.354       .  A
N623        C785   1.439       .  S
C624        H625   1.082       .  S
C626        N627   1.352       .  A
C626        H636   1.083       .  S
N627        C628   1.360       .  A
N627        C798   1.430       .  S
C628        H634   1.082       .  S
C629        N630   1.355       .  A
C629        H631   1.082       .  S
N630        C632   1.355       .  A
N630        C773   1.435       .  S
C632        H633   1.083       .  S
O637        C653   1.277       .  A
C638        O654   1.276       .  A
C638        O651   1.275       .  A
C638        C762   1.480       .  S
O639        C652   1.270   1_565  A
O639       Cd918   2.046       .  S
O640        C658   1.279       .  A
O640       Cd921   2.092       .  S
O641       Cd645   2.071       .  S
O642        C653   1.276       .  A
O642       Cd645   2.071       .  S
Zn643       O654   2.032       .  S
Zn643       O656   2.035       .  S
Zn643       O648   1.953   1_655  S
O644        C655   1.275   1_655  A
O644       Cd649   2.077       .  S
Cd645       O919   2.078   1_545  S
Cd646       O911   2.071       .  S
Cd646       O659   2.066   1_455  S
Cd646       O920   2.000   1_455  S
O647        C657   1.276       .  A
O647       Cd917   2.084       .  S
O648       Cd918   1.996   1_545  S
O648       Cd649   2.003   1_455  S
Cd649       O912   2.084   1_545  S
Cd649       O651   2.075       .  S
O650        C657   1.272       .  A
C652        O656   1.277   1_455  A
C652        C749   1.472       .  S
C653        C754   1.480       .  S
C655        C772   1.437       .  S
C657        C758   1.473       .  S
C658        O659   1.273       .  A
C658        C766   1.479       .  S
C660        C662   1.528       .  S
C660        C664   1.537       .  S
C660        C663   1.537       .  S
C660        C757   1.512       .  S
C661        C665   1.537       .  S
C661        C667   1.551       .  S
C661        C666   1.534       .  S
C661        C761   1.520       .  S
C662        C670   1.375       .  A
C662        C665   1.386       .  A
C663        C674   1.378       .  A
C663        C666   1.391       .  A
C664        C678   1.383       .  A
C664        C667   1.413       .  A
C665        C668   1.382       .  A
C666        C672   1.377       .  A
C667        C675   1.387       .  A
C668        N669   1.363       .  A
C668        H681   1.082       .  S
N669        C670   1.355       .  A
N669        C765   1.441       .  S
C670        H671   1.082       .  S
C672        N673   1.357       .  A
C672        H682   1.082       .  S
N673        C674   1.362       .  A
N673        C745   1.440       .  S
C674        H680   1.082       .  S
C675        N676   1.352       .  A
C675        H677   1.082       .  S
N676        C678   1.353       .  A
N676        C753   1.442       .  S
C678        H679   1.082       .  S
C683        C685   1.535       .  S
C683        C686   1.529       .  S
C683        C738   1.512       .  S
C684        C962   1.536       .  S
C684        C961   1.535       .  S
C684        C734   1.517       .  S
C685        C693   1.379   1_545  A
C685        C960   1.387   1_545  A
C686        C697   1.373       .  A
C687        C701   1.389       .  A
C687        C690   1.422       .  A
C688        C957   1.411       .  A
C688        C691   1.386       .  A
C689        C956   1.538   1_545  S
C689        C695   1.376   1_545  A
C690        C956   1.534   1_545  S
C690        C698   1.374       .  A
C691        N692   1.359       .  A
C691        H704   1.082       .  S
N692        C965   1.346       .  A
N692        C741   1.439       .  S
C693        N964   1.362       .  A
C693        H694   1.082   1_565  S
C695        H977   1.082       .  S
N696        C697   1.353       .  A
N696        C750   1.436       .  S
C697        H703   1.082       .  S
C698        N699   1.343       .  A
C698        H700   1.083       .  S
N699        C701   1.357       .  A
N699        C729   1.437       .  S
C701        H702   1.082       .  S
H705        C967   1.082       .  S
O706        C722   1.280       .  A
O706       Zn712   2.073       .  S
C707        O723   1.282       .  A
C707        O720   1.269       .  A
C707        C742   1.473       .  S
O708        C721   1.278       .  A
O708       Cd715   2.082       .  S
O709        C727   1.268       .  A
O709       Cd718   2.048       .  S
O710        C724   1.269       .  A
O710       Cd714   2.050       .  S
O711        C722   1.268       .  A
O711       Cd714   2.038       .  S
Zn712       O723   2.068       .  S
Zn712       O725   2.025       .  S
Zn712       O717   1.956       .  S
O713        C724   1.268       .  A
O713       Cd718   2.046       .  S
Cd714       O716   2.031       .  S
Cd714       O717   1.987       .  S
Cd715       O719   2.098       .  S
Cd715       O728   2.102       .  S
Cd715       O717   2.008       .  S
O716        C726   1.268       .  A
O717       Cd718   1.988       .  S
Cd718       O720   2.031       .  S
O719        C726   1.281       .  A
C721        O725   1.275       .  A
C721        C746   1.477       .  S
C722        C733   1.475       .  S
C724        C793   1.422       .  S
C726        C730   1.469       .  S
C727        O728   1.279       .  A
C727        C737   1.474       .  S
C729        C730   1.335       .  D
C729        H731   1.087       .  S
C730        H732   1.086       .  S
C733        C734   1.341       .  D
C733        H735   1.087       .  S
C734        H736   1.086       .  S
C737        C738   1.338       .  D
C737        H739   1.087       .  S
C738        H740   1.086       .  S
C741        C742   1.336       .  D
C741        H743   1.087       .  S
C742        H744   1.086       .  S
C745        C746   1.344       .  D
C745        H747   1.087       .  S
C746        H748   1.086       .  S
C749        C750   1.339   1_455  D
C750        H752   1.087       .  S
C753        C754   1.347       .  D
C753        H755   1.087       .  S
C754        H756   1.085       .  S
C757        C758   1.347       .  D
C757        H759   1.086       .  S
C758        H760   1.086       .  S
C761        C762   1.347       .  D
C761        H763   1.087       .  S
C762        H764   1.084       .  S
C765        C766   1.343       .  D
C765        H767   1.087       .  S
C766        H768   1.086       .  S
C770        C771   1.413       .  S
C771        C772   1.207   1_556  T
C773        C774   1.346       .  D
C773        H775   1.087       .  S
C774        H776   1.085       .  S
C777        C778   1.343       .  D
C777        H779   1.087       .  S
C778        H780   1.086       .  S
C781        C782   1.339       .  D
C781        H783   1.083       .  S
C782        H784   1.087       .  S
C785        C786   1.346       .  D
C785        H787   1.087       .  S
C786        H788   1.085       .  S
C789        C790   1.347       .  D
C790       H1064   1.086   1_545  S
H792       C1062   1.085       .  S
C793        C794   1.198       .  T
C794        C795   1.399       .  S
C795        C796   1.198       .  T
C797        C798   1.338       .  D
C797        H799   1.086       .  S
C798        H800   1.087       .  S
C801        C802   1.338       .  D
C801        H803   1.084       .  S
C802        H804   1.086       .  S
C805        C806   1.342       .  D
C805        H807   1.087       .  S
C806        H808   1.086       .  S
C809        C810   1.346       .  D
C809        H811   1.086       .  S
C810        H812   1.087       .  S
C813        C814   1.343       .  D
C813        H815   1.086       .  S
C814        H816   1.087       .  S
O817        C833   1.274       .  A
O817       Zn823   2.009       .  S
C818        O834   1.269       .  A
C818        O831   1.279       .  A
C818       C1073   1.473       .  S
O819        C832   1.271       .  A
O819       Cd826   2.037       .  S
O820        C838   1.278       .  A
O820       Cd829   2.093       .  S
O821        C835   1.278       .  A
O821       Cd825   2.099       .  S
O822        C833   1.275       .  A
O822       Cd825   2.075       .  S
Zn823       O834   1.993       .  S
Zn823       O836   2.023       .  S
Zn823       O828   1.945       .  S
O824        C835   1.276       .  A
O824       Cd829   2.087       .  S
Cd825       O827   2.090       .  S
Cd825       O828   1.993       .  S
Cd826       O830   2.035       .  S
Cd826       O839   2.032       .  S
Cd826       O828   1.988       .  S
O827        C837   1.281       .  A
O828       Cd829   1.999       .  S
Cd829       O831   2.081       .  S
O830        C837   1.266       .  A
C832        O836   1.273       .  A
C832       C1069   1.466       .  S
C833       C1085   1.473       .  S
C835       C1068   1.449       .  S
C837       C1077   1.474       .  S
C838        O839   1.268       .  A
C838       C1081   1.468       .  S
C840        C843   1.547   1_565  S
C840       C1078   1.506       .  S
C841        C846   1.540       .  S
C841       C1074   1.508       .  S
C842        C850   1.378       .  A
C842        C845   1.385   1_565  A
C843        C854   1.386   1_545  A
C844        C858   1.383       .  A
C844        C847   1.405       .  A
C845        C848   1.378   1_545  A
C846        C852   1.377       .  A
C847        C855   1.380       .  A
C848        N849   1.359       .  A
C848        H861   1.082       .  S
N849        C850   1.352       .  A
N849       C1082   1.435       .  S
C850        H851   1.083       .  S
C852        H862   1.083       .  S
N853       C1061   1.441       .  S
C854        H860   1.082       .  S
C855        N856   1.352       .  A
C855        H857   1.082       .  S
N856        C858   1.352       .  A
N856       C1086   1.438       .  S
C858        H859   1.083       .  S
O863        C879   1.275       .  A
O863       Zn869   2.024       .  S
C864        O880   1.276       .  A
C864        O877   1.277       .  A
C864       C1058   1.482       .  S
O865        C878   1.275       .  A
O865       Cd872   2.071       .  S
O866        C884   1.272       .  A
O866       Cd875   2.053       .  S
O867        C881   1.271       .  A
O867       Cd871   2.060       .  S
O868        C879   1.270       .  A
Zn869       O882   2.034       .  S
O870       Cd875   2.071       .  S
Cd871       O873   2.052       .  S
Cd871       O874   1.997       .  S
Cd872       O876   2.078       .  S
Cd872       O874   2.007       .  S
O873        C883   1.273       .  A
O876        C883   1.275       .  A
C878       C1062   1.476       .  S
C879       C1053   1.465       .  S
C881       C1041   1.430       .  S
C883       C1046   1.471       .  S
C884        O885   1.279       .  A
C884       C1049   1.471       .  S
C886        C888   1.538       .  S
C886        C890   1.534       .  S
C886        C889   1.526       .  S
C886       C1050   1.511       .  S
C887        C891   1.546       .  S
C887        C893   1.533       .  S
C887        C892   1.533       .  S
C887       C1054   1.510       .  S
C888        C896   1.382       .  A
C888        C891   1.410       .  A
C889        C900   1.370       .  A
C889        C892   1.388       .  A
C890        C904   1.379       .  A
C890        C893   1.394       .  A
C891        C894   1.384       .  A
C892        C898   1.376       .  A
C893        C901   1.379       .  A
C894        N895   1.354       .  A
C894        H907   1.081       .  S
N895        C896   1.357       .  A
N895       C1057   1.445       .  S
C896        H897   1.081       .  S
C898        N899   1.357       .  A
C898        H908   1.082       .  S
N899        C900   1.356       .  A
N899       C1070   1.431       .  S
C900        H906   1.082       .  S
C901        N902   1.354       .  A
C901        H903   1.081       .  S
N902        C904   1.353       .  A
N902       C1045   1.435       .  S
C904        H905   1.082       .  S
O909        C925   1.273       .  A
C910        O926   1.271       .  A
C910        O923   1.275       .  A
C910       C1034   1.473       .  S
O911        C924   1.276   1_455  A
O912        C930   1.277       .  A
O913       Cd917   2.068       .  S
O914        C925   1.276       .  A
O914       Cd917   2.074       .  S
Zn915       O926   2.002       .  S
Zn915       O928   1.998       .  S
Zn915       O920   1.947       .  S
O916        C927   1.275       .  A
O916       Cd921   2.077       .  S
Cd918       O931   2.059   1_455  S
O919        C929   1.274       .  A
O920       Cd921   2.005       .  S
Cd921       O923   2.084       .  S
O922        C929   1.270       .  A
C924        O928   1.270       .  A
C924       C1021   1.472       .  S
C925       C1026   1.476       .  S
C927       C1044   1.437       .  S
C929       C1030   1.473       .  S
C930        O931   1.272       .  A
C930       C1038   1.474       .  S
C932        C934   1.546       .  S
C932        C936   1.533       .  S
C932        C935   1.534       .  S
C932       C1029   1.513       .  S
C933        C937   1.538       .  S
C933        C939   1.527       .  S
C933        C938   1.542       .  S
C933       C1033   1.512       .  S
C934        C942   1.386       .  A
C934        C937   1.411       .  A
C935        C946   1.376       .  A
C935        C938   1.392       .  A
C936        C950   1.380       .  A
C936        C939   1.385       .  A
C937        C940   1.381       .  A
C938        C944   1.382       .  A
C939        C947   1.374       .  A
C940        N941   1.354       .  A
C940        H953   1.082       .  S
N941        C942   1.350       .  A
N941       C1037   1.440       .  S
C942        H943   1.082       .  S
C944        N945   1.364       .  A
C944        H954   1.082       .  S
N945        C946   1.357       .  A
N945       C1017   1.444       .  S
C946        H952   1.083       .  S
C947        N948   1.354       .  A
C947        H949   1.083       .  S
N948        C950   1.362       .  A
N948       C1025   1.437       .  S
C950        H951   1.082       .  S
C955        C957   1.534       .  S
C955        C958   1.539       .  S
C955       C1010   1.520       .  S
C956       C1006   1.517       .  S
C957        C965   1.376       .  A
C958        C969   1.380       .  A
C959        C973   1.390       .  A
C959        C962   1.414       .  A
C960        C963   1.374       .  A
C961        C967   1.374       .  A
C962        C970   1.376       .  A
C963        N964   1.355       .  A
C963        H976   1.082       .  S
N964       C1013   1.438       .  S
C965        H966   1.083       .  S
N968        C969   1.363   1_455  A
N968       C1022   1.433       .  S
C969        H975   1.082       .  S
C970        N971   1.351       .  A
C970        H972   1.081       .  S
N971        C973   1.354       .  A
N971       C1001   1.442       .  S
C973        H974   1.082       .  S
O978        C994   1.276       .  A
O978       Zn984   2.039       .  S
C979        O995   1.275       .  A
C979        O992   1.278       .  A
C979       C1014   1.475       .  S
O980        C993   1.273       .  A
O980       Cd987   2.073       .  S
O981        C999   1.277       .  A
O981       Cd990   2.096       .  S
O982        C996   1.275       .  A
O982       Cd986   2.087       .  S
O983        C994   1.273       .  A
O983       Cd986   2.069       .  S
Zn984       O995   2.020       .  S
Zn984       O997   2.048       .  S
Zn984       O989   1.964       .  S
O985        C996   1.277       .  A
O985       Cd990   2.097       .  S
Cd986       O988   2.074       .  S
Cd986       O989   2.006       .  S
Cd987       O991   2.079       .  S
Cd987      O1000   2.079       .  S
Cd987       O989   2.003       .  S
O988        C998   1.276       .  A
O989       Cd990   2.014       .  S
Cd990       O992   2.078       .  S
O991        C998   1.277       .  A
C993        O997   1.277       .  A
C993       C1018   1.483       .  S
C994       C1005   1.476       .  S
C996       C1065   1.449       .  S
C998       C1002   1.476       .  S
C999       O1000   1.276       .  A
C999       C1009   1.482       .  S
C1001      C1002   1.348       .  D
C1001      H1003   1.087       .  S
C1002      H1004   1.084       .  S
C1005      C1006   1.345       .  D
C1005      H1007   1.087       .  S
C1006      H1008   1.086       .  S
C1009      C1010   1.348       .  D
C1009      H1011   1.086       .  S
C1010      H1012   1.086       .  S
C1013      C1014   1.343       .  D
C1013      H1015   1.087       .  S
C1014      H1016   1.086       .  S
C1017      C1018   1.345       .  D
C1017      H1019   1.087       .  S
C1018      H1020   1.086       .  S
C1021      C1022   1.338   1_655  D
C1022      H1024   1.087       .  S
C1025      C1026   1.342       .  D
C1025      H1027   1.087       .  S
C1026      H1028   1.086       .  S
C1029      C1030   1.347       .  D
C1029      H1031   1.087       .  S
C1030      H1032   1.083       .  S
C1033      C1034   1.348       .  D
C1033      H1035   1.086       .  S
C1034      H1036   1.087       .  S
C1037      C1038   1.343       .  D
C1037      H1039   1.087       .  S
C1038      H1040   1.085       .  S
C1042      C1043   1.413       .  S
C1043      C1044   1.207   1_556  T
C1045      C1046   1.345       .  D
C1045      H1047   1.087       .  S
C1046      H1048   1.086       .  S
C1049      C1050   1.339       .  D
C1049      H1051   1.087       .  S
C1050      H1052   1.086       .  S
C1053      C1054   1.335       .  D
C1053      H1055   1.085       .  S
C1054      H1056   1.086       .  S
C1057      C1058   1.348       .  D
C1057      H1059   1.087       .  S
C1058      H1060   1.084       .  S
C1061      C1062   1.346       .  D
C1065      C1066   1.214       .  T
C1066      C1067   1.425       .  S
C1067      C1068   1.214       .  T
C1069      C1070   1.343       .  D
C1069      H1071   1.086       .  S
C1070      H1072   1.087       .  S
C1073      C1074   1.335       .  D
C1073      H1075   1.087       .  S
C1074      H1076   1.085       .  S
C1077      C1078   1.331       .  D
C1077      H1079   1.086       .  S
C1078      H1080   1.086       .  S
C1081      C1082   1.337       .  D
C1081      H1083   1.087       .  S
C1082      H1084   1.086       .  S
C1085      C1086   1.346       .  D
C1085      H1087   1.085       .  S
C1086      H1088   1.087       .  S
