geometry optimzed in LAMMPS
_audit_creation_date              2020-11-30 
_audit_creation_method            'lammps2cif' 
_symmetry_space_group_name_H-M    'P1' 
_symmetry_Int_Tables_number       1 
_symmetry_cell_setting            triclinic 
loop_ 
_symmetry_equiv_pos_as_xyz 
  x,y,z 
_cell_length_a                    33.90212862 
_cell_length_b                    29.1354024054149 
_cell_length_c                    22.472593594181404 
_cell_angle_alpha                 90.20780351910186 
_cell_angle_beta                  89.91484404554429 
_cell_angle_gamma                 90.49286828431578 
loop_ 
_atom_site_label 
_atom_site_type_symbol 
_atom_site_fract_x 
_atom_site_fract_y 
_atom_site_fract_z 
_atom_site_charge 
C1          C  0.97446236  0.37664414  0.16940831    -0.02500
C2          C  0.57570818  0.13874045  0.67546840    -0.02500
O3          O  0.63938807  0.16671487  0.40165151    -0.78600
C4          C  0.73528487  0.21988884  0.29635963     0.82500
O5          O  0.58066109  0.18190410  0.20814098    -0.79700
O6          O  0.70853603  0.13614331  0.13596232    -0.81100
O7          O  0.70917271  0.03748670  0.31302130    -0.80900
O8          O  0.64764442  0.09142816  0.40480808    -0.79600
Zn9        Zn  0.65246174  0.18222827  0.31605702     1.55700
O10         O  0.74776892  0.07445385  0.24824303    -0.81000
Cd11       Cd  0.65844207  0.07483740  0.31727367     1.59700
Cd12       Cd  0.61799199  0.12471263  0.20255225     1.59600
O13         O  0.61438438  0.03179554  0.28947375    -0.81000
O14         O  0.66052436  0.12929577  0.26538996    -1.91500
Cd15       Cd  0.71422831  0.13209594  0.22783807     1.59900
O16         O  0.58536161  0.06312644  0.21113188    -0.80900
O17         O  0.74517696  0.18867026  0.25950614    -0.79600
C18         C  0.58238537  0.21641331  0.24337664     0.83000
C19         C  0.63928289  0.12914147  0.43030260     0.82600
O20         O  0.70099873  0.22066712  0.31930909    -0.78500
C21         C  0.74104574  0.04109836  0.28353471     0.83400
O22         O  0.60842756  0.21965937  0.28398778    -0.78600
C23         C  0.58861277  0.03032474  0.24848347     0.83600
C24         C  0.67948870  0.13138571  0.10025508     0.83900
O25         O  0.64417249  0.12530545  0.11871231    -0.81000
C26         C  0.71504546  0.12325249  0.84238588    -0.02500
O27         O  0.91390801  0.33611206  0.89318500    -0.78600
C28         C  0.81742717  0.28059696  0.78018684     0.82500
O29         O  0.96882666  0.31610019  0.69916408    -0.79700
O30         O  0.84016752  0.38094687  0.63444504    -0.81100
O31         O  0.85080431  0.46750653  0.81694184    -0.80900
O32         O  0.91808642  0.41223366  0.89384212    -0.79600
Zn33       Zn  0.89859067  0.32018141  0.80878950     1.55700
O34         O  0.80545123  0.43074538  0.76305916    -0.81000
Cd35       Cd  0.90124953  0.42930419  0.80910321     1.59700
Cd36       Cd  0.93300250  0.37355986  0.69368845     1.59600
O37         O  0.94689359  0.46846530  0.77600487    -0.81000
O38         O  0.89241873  0.37387681  0.75939851    -1.91500
Cd39       Cd  0.83720947  0.37553296  0.72700122     1.59900
O40         O  0.97058040  0.43057245  0.69744681    -0.80900
O41         O  0.80722868  0.31461088  0.74817269    -0.79600
C42         C  0.96717512  0.28325336  0.73634447     0.83000
C43         C  0.92170546  0.37378232  0.91975962     0.82600
O44         O  0.85058976  0.27952144  0.80653981    -0.78500
C45         C  0.81558056  0.46368973  0.79771719     0.83400
O46         O  0.94183747  0.28193976  0.77790152    -0.78600
C47         C  0.97195748  0.46396516  0.73418377     0.83600
C48         C  0.86839508  0.37758403  0.59688217     0.83900
O49         O  0.90426114  0.37289556  0.61272228    -0.81000
C50         C  0.83721795  0.38037156  0.33907449    -0.02500
C51         C  0.47601804  0.37595971  0.25548939    -0.02500
C52         C  0.07266088  0.12542035  0.75211787    -0.02500
O53         O  0.13847209  0.10084469  0.02183684    -0.78600
C54         C  0.23349218  0.04047459  0.13020150     0.82500
O55         O  0.07950937  0.06942254  0.21199691    -0.79700
O56         O  0.20543912  0.12556088  0.28988545    -0.81100
O57         O  0.20400649  0.22610595  0.11633031    -0.80900
O58         O  0.13662499  0.17717982  0.02635527    -0.79600
Zn59       Zn  0.15143219  0.07992518  0.10522550     1.55700
O60         O  0.24388629  0.18747253  0.17708544    -0.81000
Cd61       Cd  0.15172112  0.18937191  0.11476473     1.59700
Cd62       Cd  0.11483541  0.12784147  0.22304008     1.59600
O63         O  0.10778690  0.22940155  0.15180367    -0.81000
O64         O  0.15730743  0.13093121  0.16007019    -1.91500
Cd65       Cd  0.21119744  0.12875577  0.19775922     1.59900
O66         O  0.07835442  0.18522221  0.21998284    -0.80900
O67         O  0.24305240  0.07171188  0.16762375    -0.79600
C68         C  0.08065339  0.03829012  0.17198795     0.83000
C69         C  0.13279338  0.13965723  0.99757967     0.82600
O70         O  0.20015928  0.04071062  0.10399287    -0.78500
C71         C  0.23679156  0.22141964  0.14319044     0.83400
O72         O  0.10649439  0.03954398  0.13081574    -0.78600
C73         C  0.08099792  0.22257918  0.19075854     0.83600
C74         C  0.17619595  0.12514478  0.32586530     0.83900
O75         O  0.14068198  0.12601810  0.30701443    -0.81000
C76         C  0.21097860  0.13742246  0.58444481    -0.02500
O77         O  0.34137718  0.29617036  0.61232342    -0.78600
C78         C  0.41434906  0.38468296  0.50057582     0.82500
O79         O  0.46549901  0.32696849  0.71960637    -0.79700
O80         O  0.44271896  0.47725650  0.64516152    -0.81100
O81         O  0.30660696  0.45067294  0.67086513    -0.80900
O82         O  0.30026272  0.33379188  0.67262496    -0.79600
Zn83       Zn  0.39305077  0.33117968  0.61285883     1.55700
O84         O  0.35118713  0.48184193  0.61006838    -0.81000
Cd85       Cd  0.33468349  0.39025624  0.69938225     1.59700
Cd86       Cd  0.43097627  0.38565119  0.72858684     1.59600
O87         O  0.33944359  0.39052339  0.79224228    -0.81000
O88         O  0.38904812  0.38501764  0.66422414    -1.91500
Cd89       Cd  0.39794291  0.43891938  0.61323370     1.59900
O90         O  0.40383504  0.38545704  0.81170070    -0.80900
O91         O  0.41232182  0.42271285  0.52794218    -0.79600
C92         C  0.46374098  0.29367962  0.68253143     0.83000
C93         C  0.30778740  0.30058760  0.63717997     0.82600
O94         O  0.40662437  0.34694574  0.52680364    -0.78500
C95         C  0.31786900  0.48259579  0.63562302     0.83400
O96         O  0.43735137  0.29109882  0.64218296    -0.78600
C97         C  0.36803699  0.38801848  0.82920433     0.83600
C98         C  0.46734138  0.47724051  0.68757317     0.83900
O99         O  0.46808457  0.44437025  0.72499760    -0.81000
C100        C  0.33628974  0.38043564  0.08860636    -0.02500
C101        C  0.38995317  0.39934130  0.93496403    -0.26400
C102        C  0.35972343  0.38808747  0.89454763    -0.14400
C103        C  0.32206135  0.37765304  0.91748234     0.36200
C104        C  0.31578860  0.37743185  0.97909585    -0.25800
C105        C  0.34665156  0.38420155  0.02067697    -0.15100
C106        C  0.38373218  0.39880872  0.99702388     0.37300
N107        N  0.41483639  0.41521997  0.03472862    -0.89300
H108        H  0.41870232  0.40964447  0.91834395     0.18400
H109        H  0.28637160  0.36944877  0.99449827     0.18400
N110        N  0.29001306  0.36588382  0.87868430    -0.88300
H111        H  0.42148444  0.44908677  0.02287944     0.35800
H112        H  0.43985732  0.39535936  0.02679289     0.40800
H113        H  0.26705089  0.38884718  0.88663288     0.40500
H114        H  0.28001641  0.33294671  0.88978219     0.35400
C115        C  0.23766090  0.21924377  0.55721785    -0.26400
C116        C  0.23043631  0.18523438  0.60111010    -0.14400
C117        C  0.24217595  0.19710949  0.66079329     0.36200
C118        C  0.26575335  0.23600533  0.67151941    -0.25800
C119        C  0.27743890  0.26501476  0.62545543    -0.15100
C120        C  0.26189695  0.25755114  0.56818844     0.37300
N121        N  0.27018415  0.28847185  0.52023644    -0.89300
H122        H  0.22526720  0.21636222  0.51317988     0.18400
H123        H  0.27616599  0.24275917  0.71632836     0.18400
N124        N  0.23125703  0.17086146  0.71209093    -0.88300
H125        H  0.30062050  0.28924416  0.51284324     0.35800
H126        H  0.26125956  0.32132664  0.53303309     0.40800
H127        H  0.23969516  0.13676469  0.70722507     0.40500
H128        H  0.20090526  0.17331474  0.71878438     0.35400
C129        C  0.27941379  0.10431462  0.61531584    -0.26400
C130        C  0.24013451  0.09670319  0.59601972    -0.14400
C131        C  0.22864228  0.05011857  0.58495055     0.36200
C132        C  0.25373874  0.01387416  0.60006944    -0.25800
C133        C  0.29141566  0.02230260  0.62281737    -0.15100
C134        C  0.30465339  0.06814858  0.62890452     0.37300
N135        N  0.34348908  0.07923827  0.64995913    -0.89300
H136        H  0.29156860  0.13849618  0.61959588     0.18400
H137        H  0.24361914  0.47876348  0.59545086     0.18400
N138        N  0.19078257  0.03920634  0.56016471    -0.88300
H139        H  0.36421588  0.06662153  0.61975185     0.35800
H140        H  0.34761339  0.06338285  0.69111671     0.40800
H141        H  0.17569550  0.01769200  0.58975990     0.40500
H142        H  0.19520620  0.02098672  0.52057842     0.35400
C143        C  0.22281352  0.13210526  0.41156373    -0.26400
C144        C  0.18410743  0.12483394  0.39138469    -0.14400
C145        C  0.15402764  0.11798253  0.43419085     0.36200
C146        C  0.16297386  0.12167598  0.49525507    -0.25800
C147        C  0.20132769  0.13294617  0.51610849    -0.15100
C148        C  0.23177913  0.13523758  0.47239653     0.37300
N149        N  0.27222405  0.14127039  0.48942191    -0.89300
H150        H  0.24670764  0.13591246  0.37984624     0.18400
H151        H  0.13940812  0.11472562  0.52632683     0.18400
N152        N  0.11445736  0.10669166  0.41593934    -0.88300
H153        H  0.28329680  0.17077386  0.46869377     0.35800
H154        H  0.28810032  0.11320000  0.47339323     0.40800
H155        H  0.09564313  0.10404368  0.45269980     0.40500
H156        H  0.11512818  0.07413522  0.39624200     0.35400
C157        C  0.27561680  0.28916696  0.17622560    -0.26400
C158        C  0.26766109  0.25615041  0.13245183    -0.14400
C159        C  0.28636193  0.25962649  0.07655837     0.36200
C160        C  0.30946576  0.29832855  0.06381132    -0.25800
C161        C  0.31461631  0.33465439  0.10519815    -0.15100
C162        C  0.29915471  0.32787262  0.16357866     0.37300
N163        N  0.30488516  0.36189384  0.20901826    -0.89300
H164        H  0.26183908  0.28616647  0.21961504     0.18400
H165        H  0.32412454  0.29872421  0.02117193     0.18400
N166        N  0.28243000  0.22478184  0.03131135    -0.88300
H167        H  0.27722068  0.37340029  0.22292116     0.35800
H168        H  0.31852571  0.34625739  0.24527434     0.40800
H169        H  0.26552384  0.19689495  0.04584059     0.40500
H170        H  0.31059119  0.21191243  0.02280977     0.35400
C171        C  0.32401120  0.46770321  0.09546104    -0.26400
C172        C  0.30805836  0.42257023  0.09846963    -0.14400
C173        C  0.26586776  0.41921417  0.10143184     0.36200
C174        C  0.24318687  0.45834262  0.11169821    -0.25800
C175        C  0.26024456  0.00124833  0.11819471    -0.15100
C176        C  0.30130606  0.00609058  0.10998586     0.37300
N177        N  0.31971997  0.05058723  0.11431771    -0.89300
H178        H  0.35516604  0.47218876  0.08631659     0.18400
H179        H  0.21144697  0.45434638  0.11552075     0.18400
N180        N  0.24484813  0.37719647  0.09018985    -0.88300
H181        H  0.34977428  0.04850030  0.10425533     0.35800
H182        H  0.31808027  0.06101162  0.15880041     0.40800
H183        H  0.22695034  0.37005916  0.12701665     0.40500
H184        H  0.22639515  0.38198446  0.05351832     0.35400
C185        C  0.16953259  0.09818059  0.66775469    -0.26400
C186        C  0.17298754  0.13316904  0.62430231    -0.14400
C187        C  0.14140286  0.16535800  0.62207749     0.36200
C188        C  0.10816344  0.15958675  0.65843077    -0.25800
C189        C  0.10661289  0.12688641  0.70473787    -0.15100
C190        C  0.13743947  0.09453327  0.70652301     0.37300
N191        N  0.13730263  0.05844040  0.74970231    -0.89300
H192        H  0.19295785  0.07438503  0.67608758     0.18400
H193        H  0.08401766  0.18259560  0.65046775     0.18400
N194        N  0.14243533  0.20615575  0.58645186    -0.88300
H195        H  0.16286433  0.06144124  0.77546375     0.35800
H196        H  0.13827097  0.02707981  0.72699346     0.40800
H197        H  0.14759225  0.19875604  0.54182800     0.40500
H198        H  0.16412382  0.22848123  0.60261830     0.35400
C199        C  0.12903616  0.14464786  0.82838965    -0.26400
C200        C  0.08903961  0.13275641  0.81706965    -0.14400
C201        C  0.06356075  0.13031891  0.86752470     0.36200
C202        C  0.07883765  0.13335019  0.92531105    -0.25800
C203        C  0.11899081  0.14065477  0.93542056    -0.15100
C204        C  0.14438721  0.14753472  0.88638652     0.37300
N205        N  0.18575517  0.15748970  0.89339977    -0.89300
H206        H  0.14921546  0.15193674  0.79244058     0.18400
H207        H  0.05898985  0.12939669  0.96287317     0.18400
N208        N  0.02198101  0.12345511  0.86065573    -0.88300
H209        H  0.20138393  0.13026948  0.87453830     0.35800
H210        H  0.19385604  0.15915813  0.93814323     0.40800
H211        H  0.00759092  0.15114903  0.88059382     0.40500
H212        H  0.01374875  0.09365650  0.88349207     0.35400
C213        C  0.43405588  0.34290114  0.16771052    -0.26400
C214        C  0.44152667  0.37822458  0.20921702    -0.14400
C215        C  0.41380050  0.41456176  0.21097574     0.36200
C216        C  0.38021799  0.41376837  0.17441064    -0.25800
C217        C  0.37394626  0.38001341  0.12992651    -0.15100
C218        C  0.40237894  0.34380008  0.12784727     0.37300
N219        N  0.39975881  0.30545290  0.08792353    -0.89300
H220        H  0.45150105  0.31225823  0.16679857     0.18400
H221        H  0.35871144  0.43979956  0.18350055     0.18400
N222        N  0.41912933  0.45255658  0.25093879    -0.88300
H223        H  0.39520953  0.31601294  0.04427328     0.35800
H224        H  0.37797226  0.28268598  0.10243525     0.40800
H225        H  0.41988834  0.48276086  0.22597923     0.40500
H226        H  0.39465999  0.45394680  0.27925797     0.35400
C227        C  0.46412316  0.41837165  0.35590204    -0.26400
C228        C  0.45505398  0.38099606  0.31763474    -0.14400
C229        C  0.42628098  0.34855234  0.33907049     0.36200
C230        C  0.41364910  0.35029973  0.39854165    -0.25800
C231        C  0.42681546  0.38483801  0.43735638    -0.15100
C232        C  0.45157161  0.41977019  0.41505271     0.37300
N233        N  0.46538805  0.45627787  0.45280499    -0.89300
H234        H  0.48136365  0.44741280  0.34102605     0.18400
H235        H  0.39321200  0.32429362  0.41448858     0.18400
N236        N  0.41003593  0.31246457  0.30290540    -0.88300
H237        H  0.45672730  0.48743713  0.43418102     0.35800
H238        H  0.49622691  0.45558161  0.45331610     0.40800
H239        H  0.43246852  0.29282241  0.28426163     0.40500
H240        H  0.39273280  0.32668229  0.26949060     0.35400
C241        C  0.01038981  0.02449040  0.68697433    -0.26400
C242        C  0.00452644  0.49769513  0.73161065    -0.14400
C243        C  0.02871632  0.50457987  0.78178476     0.36200
C244        C  0.05341314  0.04399579  0.78959517    -0.25800
C245        C  0.05301121  0.07714181  0.74380068    -0.15100
C246        C  0.03466826  0.06395319  0.68923295     0.37300
N247        N  0.03791456  0.09246769  0.63763304    -0.89300
H248        H  0.99360686  0.01709223  0.64702145     0.18400
H249        H  0.07171341  0.04820256  0.82853244     0.18400
N250        N  0.02841147  0.47341810  0.83103532    -0.88300
H251        H  0.05002878  0.07282496  0.60325788     0.35800
H252        H  0.00960270  0.10218528  0.62465643     0.40800
H253        H  0.03415300  0.44042380  0.81494175     0.40500
H254        H  0.00054578  0.47347743  0.85089367     0.35400
C255        C  0.97787561  0.20055268  0.73167409    -0.26400
C256        C  0.99436536  0.24452678  0.73228924    -0.14400
C257        C  0.03519267  0.24992844  0.74042402     0.36200
C258        C  0.05863227  0.21109549  0.74745401    -0.25800
C259        C  0.04295363  0.16580808  0.74398314    -0.15100
C260        C  0.00095496  0.16145607  0.73899842     0.37300
N261        N  0.98037054  0.11877346  0.74678606    -0.89300
H262        H  0.94608608  0.19652932  0.72872080     0.18400
H263        H  0.08992793  0.21629212  0.75494462     0.18400
N264        N  0.05338408  0.29439926  0.74420059    -0.88300
H265        H  0.96292767  0.11283025  0.70914602     0.35800
H266        H  0.96131835  0.12187502  0.78319181     0.40800
H267        H  0.04025162  0.31255278  0.77910335     0.40500
H268        H  0.04797454  0.31181278  0.70449592     0.35400
C269        C  0.87814554  0.34742550  0.49466826    -0.26400
C270        C  0.85970438  0.37883807  0.53252478    -0.14400
C271        C  0.83383622  0.41107243  0.50829683     0.36200
C272        C  0.82796635  0.41260686  0.44654907    -0.25800
C273        C  0.84702948  0.38181598  0.40703463    -0.15100
C274        C  0.87121558  0.34755157  0.43315967     0.37300
N275        N  0.88894023  0.31249975  0.39741758    -0.89300
H276        H  0.89747289  0.32170030  0.51316247     0.18400
H277        H  0.80651919  0.43684308  0.43083462     0.18400
N278        N  0.81358285  0.44271888  0.54624137    -0.88300
H279        H  0.87880530  0.28066424  0.41273771     0.35800
H280        H  0.91946837  0.31380241  0.40375075     0.40800
H281        H  0.78326405  0.43807056  0.53982930     0.40500
H282        H  0.82103219  0.47601225  0.53283822     0.35400
C283        C  0.80066954  0.03534701  0.85323258    -0.26400
C284        C  0.78664156  0.49955983  0.81604374    -0.14400
C285        C  0.74829119  0.99922543  0.79718738     0.36200
C286        C  0.72435854  0.03746095  0.80897100    -0.25800
C287        C  0.73904282  0.07730420  0.83807776    -0.15100
C288        C  0.77688026  0.07343739  0.86501161     0.37300
N289        N  0.79248823  0.10921151  0.90218474    -0.89300
H290        H  0.83012678  0.03514459  0.87185911     0.18400
H291        H  0.69408938  0.03561955  0.79414049     0.18400
N292        N  0.73105573  0.46214433  0.76341991    -0.88300
H293        H  0.81911767  0.12080588  0.88384377     0.35800
H294        H  0.79857538  0.09520641  0.94391371     0.40800
H295        H  0.72104783  0.47471258  0.72266962     0.40500
H296        H  0.70671893  0.44910111  0.78668824     0.35400
C297        C  0.77556851  0.15950600  0.78731049    -0.26400
C298        C  0.74046596  0.16567112  0.82072724    -0.14400
C299        C  0.72868234  0.21219110  0.83075015     0.36200
C300        C  0.75344032  0.24893826  0.81445657    -0.25800
C301        C  0.79008868  0.24139834  0.78830152    -0.15100
C302        C  0.80080856  0.19621580  0.77323998     0.37300
N303        N  0.83698770  0.18659181  0.74277414    -0.89300
H304        H  0.78440649  0.12585123  0.77235290     0.18400
H305        H  0.74461793  0.28371683  0.82501749     0.18400
N306        N  0.69254033  0.22296093  0.86033176    -0.88300
H307        H  0.86057381  0.19719024  0.76951013     0.35800
H308        H  0.83767124  0.20552210  0.70334512     0.40800
H309        H  0.67593496  0.24359328  0.83200620     0.40500
H310        H  0.69907519  0.24225099  0.89845423     0.35400
C311        C  0.53458109  0.98403956  0.19898705    -0.26400
C312        C  0.56205621  0.98912532  0.24537005    -0.14400
C313        C  0.56701407  0.45270159  0.28660925     0.36200
C314        C  0.53953382  0.41675628  0.28595405    -0.25800
C315        C  0.50774917  0.41486269  0.24539347    -0.15100
C316        C  0.50876018  0.44736460  0.19797891     0.37300
N317        N  0.48447065  0.44211468  0.14632556    -0.89300
H318        H  0.53392934  0.00910606  0.16351530     0.18400
H319        H  0.54190179  0.39111119  0.32039655     0.18400
N320        N  0.59748806  0.45222858  0.33076965    -0.88300
H321        H  0.50277370  0.93763474  0.10803428     0.35800
H322        H  0.46813845  0.47208742  0.14094058     0.40800
H323        H  0.61361537  0.42204593  0.32546152     0.40500
H324        H  0.58419280  0.45154654  0.37278331     0.35400
C325        C  0.53502929  0.26437002  0.29573647    -0.26400
C326        C  0.55247746  0.25310887  0.24147944    -0.14400
C327        C  0.54551479  0.28153455  0.19179152     0.36200
C328        C  0.52060180  0.31972764  0.19818605    -0.25800
C329        C  0.50110692  0.33054267  0.25236634    -0.15100
C330        C  0.51146253  0.30309650  0.30280297     0.37300
N331        N  0.50195101  0.31581781  0.36270423    -0.89300
H332        H  0.54187674  0.24421483  0.33485275     0.18400
H333        H  0.51673271  0.34189902  0.16005572     0.18400
N334        N  0.56408975  0.27414239  0.13502934    -0.88300
H335        H  0.52820441  0.32096906  0.38627978     0.35800
H336        H  0.48664097  0.28853078  0.38251213     0.40800
H337        H  0.58239932  0.24559600  0.13542487     0.40500
H338        H  0.58227208  0.30253287  0.12645797     0.35400
C339        C  0.72406576  0.15718338  0.94865997    -0.26400
C340        C  0.70357855  0.12646427  0.91017393    -0.14400
C341        C  0.67516970  0.09649000  0.93786316     0.36200
C342        C  0.66643160  0.10097998  0.99858676    -0.25800
C343        C  0.68712073  0.13161880  0.03525919    -0.15100
C344        C  0.71632356  0.15978286  0.00987186     0.37300
N345        N  0.73826749  0.19149016  0.04606532    -0.89300
H346        H  0.74779262  0.17867907  0.93242610     0.18400
H347        H  0.64472683  0.07798545  0.01812718     0.18400
N348        N  0.65601024  0.05902703  0.90781157    -0.88300
H349        H  0.73411478  0.22447720  0.02913839     0.35800
H350        H  0.76819673  0.18363353  0.04209303     0.40800
H351        H  0.67674647  0.03438474  0.89643174     0.40500
H352        H  0.64038601  0.06988346  0.87071053     0.35400
C353        C  0.75881858  0.46058657  0.26615943    -0.26400
C354        C  0.76962180  0.00371166  0.28943599    -0.14400
C355        C  0.80612280  0.00862306  0.31890852     0.36200
C356        C  0.82826412  0.46750839  0.33142330    -0.25800
C357        C  0.81377604  0.42311133  0.31680170    -0.15100
C358        C  0.78042834  0.42095502  0.27780817     0.37300
N359        N  0.76862846  0.37956586  0.24785252    -0.89300
H360        H  0.73214943  0.45788598  0.23971934     0.18400
H361        H  0.85550322  0.47116031  0.35616709     0.18400
N362        N  0.82094836  0.05232252  0.33927322    -0.88300
H363        H  0.77019045  0.38530653  0.20199564     0.35800
H364        H  0.73911758  0.37264390  0.25838492     0.40800
H365        H  0.80196309  0.07901738  0.32853199     0.40500
H366        H  0.84741679  0.05883719  0.31678552     0.35400
C367        C  0.82705447  0.29554833  0.30504865    -0.26400
C368        C  0.81225750  0.33533608  0.33341611    -0.14400
C369        C  0.77394756  0.33207603  0.35903383     0.36200
C370        C  0.75002357  0.29378591  0.34744144    -0.25800
C371        C  0.76348854  0.25699659  0.31270161    -0.15100
C372        C  0.80322108  0.25690077  0.29446879     0.37300
N373        N  0.81985442  0.21757685  0.26573729    -0.89300
H374        H  0.85743955  0.29368711  0.29074266     0.18400
H375        H  0.72013408  0.29379367  0.36458538     0.18400
N376        N  0.75803055  0.36884168  0.39380799    -0.88300
H377        H  0.84352560  0.20631333  0.29148516     0.35800
H378        H  0.83092293  0.22781619  0.22436640     0.40800
H379        H  0.75060981  0.35592609  0.43574084     0.40500
H380        H  0.73211366  0.38005409  0.37353306     0.35400
C381        C  0.64394964  0.14860611  0.81803289    -0.26400
C382        C  0.67812113  0.12473108  0.80062876    -0.14400
C383        C  0.67949063  0.11088085  0.74016748     0.36200
C384        C  0.64495253  0.11038434  0.70589483    -0.25800
C385        C  0.61116631  0.13637857  0.72155877    -0.15100
C386        C  0.61376926  0.15952967  0.77759639     0.37300
N387        N  0.58862413  0.19674659  0.79332766    -0.89300
H388        H  0.64171865  0.16272729  0.86241025     0.18400
H389        H  0.64647168  0.09216461  0.66401874     0.18400
N390        N  0.71589639  0.09827139  0.71226252    -0.88300
H391        H  0.57605922  0.18989092  0.83493617     0.35800
H392        H  0.60603238  0.22634448  0.79777044     0.40800
H393        H  0.72126582  0.12126253  0.67750727     0.40500
H394        H  0.71247418  0.06560525  0.69342342     0.35400
C395        C  0.55484474  0.05931622  0.71992413    -0.26400
C396        C  0.54655413  0.09689668  0.68183647    -0.14400
C397        C  0.51139145  0.09348800  0.64656996     0.36200
C398        C  0.48780394  0.05453046  0.64928152    -0.25800
C399        C  0.49624860  0.01735589  0.68636811    -0.15100
C400        C  0.52848537  0.52040209  0.72662153     0.37300
N401        N  0.53812328  0.48369717  0.76604623    -0.89300
H402        H  0.58077287  0.05997355  0.74776635     0.18400
H403        H  0.46186578  0.05391836  0.62113207     0.18400
N404        N  0.49854894  0.12789997  0.60546896    -0.88300
H405        H  0.53987198  0.49710220  0.80919581     0.35800
H406        H  0.56602519  0.47156340  0.75435369     0.40800
H407        H  0.52086390  0.13749964  0.57602828     0.40500
H408        H  0.48710834  0.15604347  0.62815962     0.35400
C409        C  0.54803986  0.21666825  0.63727864    -0.26400
C410        C  0.54931437  0.18308726  0.68306851    -0.14400
C411        C  0.51987980  0.18803270  0.72935291     0.36200
C412        C  0.49399372  0.22550421  0.72925795    -0.25800
C413        C  0.49433544  0.25794729  0.68377662    -0.15100
C414        C  0.52188446  0.25351898  0.63729400     0.31700
N415        N  0.52362539  0.28483708  0.58783053    -0.89300
H416        H  0.56499649  0.21381684  0.59727941     0.18400
H417        H  0.47210840  0.22822561  0.76430168     0.18400
N418        N  0.51364148  0.15530207  0.77632636    -0.88300
H419        H  0.55164113  0.30012965  0.58785245     0.35800
H420        H  0.50362278  0.31163529  0.59211587     0.40800
H421        H  0.53695294  0.13284565  0.78176514     0.40500
H422        H  0.48825177  0.13618388  0.76632282     0.35400
C423        C  0.58932125  0.09602517  0.57467926    -0.26400
C424        C  0.59528176  0.13534185  0.61140781    -0.14400
C425        C  0.62380974  0.16782144  0.59063385     0.36200
C426        C  0.63799862  0.16542257  0.53164158    -0.25800
C427        C  0.62736448  0.12887444  0.49382052    -0.15100
C428        C  0.60409636  0.09288052  0.51710074     0.37300
N429        N  0.59360719  0.05292482  0.48296047    -0.89300
H430        H  0.57301427  0.06628519  0.58959485     0.18400
H431        H  0.65764188  0.19216082  0.51549792     0.18400
N432        N  0.63798785  0.20368764  0.62911293    -0.88300
H433        H  0.61917794  0.03486814  0.47233336     0.35800
H434        H  0.57940139  0.06312679  0.44398364     0.40800
H435        H  0.63284208  0.23526278  0.60870047     0.40500
H436        H  0.66850876  0.20006460  0.63335135     0.35400
C437        C  0.94467654  0.38742718  0.27343243    -0.26400
C438        C  0.93811518  0.37770672  0.21256467    -0.14400
C439        C  0.89850861  0.36674115  0.19586091     0.36200
C440        C  0.86804175  0.37029198  0.23727461    -0.25800
C441        C  0.87437022  0.38027896  0.29777777    -0.15100
C442        C  0.91354588  0.39212124  0.31460355     0.37300
N443        N  0.92210787  0.41204630  0.37151173    -0.89300
H444        H  0.97444976  0.39436820  0.28865828     0.18400
H445        H  0.83871629  0.36208335  0.22186695     0.18400
N446        N  0.88826825  0.34883905  0.13835000    -0.88300
H447        H  0.94385605  0.39242895  0.39202217     0.35800
H448        H  0.93386550  0.44489112  0.36458497     0.40800
H449        H  0.87512869  0.31651967  0.14385368     0.40500
H450        H  0.86715195  0.37030565  0.11947654     0.35400
C451        C  0.03729966  0.33984505  0.21505048    -0.26400
C452        C  0.99937700  0.33411374  0.18934134    -0.14400
C453        C  0.98550982  0.28807165  0.18326016     0.36200
C454        C  0.01204195  0.25129195  0.18785650    -0.25800
C455        C  0.05191564  0.25927011  0.20072191    -0.15100
C456        C  0.06395400  0.30365101  0.21805737     0.37300
N457        N  0.10323205  0.31306775  0.23848057    -0.89300
H458        H  0.04773738  0.37307009  0.23004434     0.18400
H459        H  0.00190825  0.21676847  0.17768641     0.18400
N460        N  0.94521453  0.27844097  0.16883104    -0.88300
H461        H  0.12310753  0.30555910  0.20431485     0.35800
H462        H  0.10904810  0.29157595  0.27451852     0.40800
H463        H  0.93334058  0.25788744  0.20254710     0.40500
H464        H  0.94437437  0.25953204  0.12921078     0.35400
C465        C  0.99178362  0.46056405  0.20558703    -0.26400
C466        C  0.00102130  0.42110213  0.17135881    -0.14400
C467        C  0.03556171  0.42358872  0.13521758     0.36200
C468        C  0.06034565  0.46192555  0.13741510    -0.25800
C469        C  0.05204925  0.99906048  0.17236530    -0.15100
C470        C  0.01796267  0.99768232  0.20862794     0.37300
N471        N  0.00865532  0.03565167  0.24705352    -0.89300
H472        H  0.96415512  0.46272134  0.22914707     0.18400
H473        H  0.08672315  0.46156050  0.11012100     0.18400
N474        N  0.04635083  0.38648124  0.09658500    -0.88300
H475        H  0.98349863  0.02848797  0.27246489     0.35800
H476        H  0.00165883  0.06352538  0.21999143     0.40800
H477        H  0.07450089  0.37534933  0.10844385     0.40500
H478        H  0.04779143  0.39897408  0.05306252     0.35400
C479        C  0.97246077  0.33942324  0.06339298    -0.26400
C480        C  0.96114977  0.37494973  0.10287211    -0.14400
C481        C  0.93873405  0.41160198  0.07864384     0.36200
C482        C  0.92630124  0.41022105  0.01932108    -0.25800
C483        C  0.93570367  0.37336194  0.98204134    -0.15100
C484        C  0.95979122  0.33806354  0.00388254     0.37300
N485        N  0.97248656  0.30169319  0.96504771    -0.89300
H486        H  0.99268530  0.31328893  0.07728647     0.18400
H487        H  0.90849169  0.43807435  0.00262509     0.18400
N488        N  0.92726401  0.44981883  0.11488372    -0.88300
H489        H  0.98979126  0.27812394  0.98804775     0.35800
H490        H  0.99064034  0.31630297  0.93243037     0.40800
H491        H  0.93845475  0.47977321  0.09543034     0.40500
H492        H  0.89648276  0.45175796  0.11479250     0.35400
C493        C  0.97498273  0.87511937  0.17038473    -0.02500
C494        C  0.57487171  0.63797893  0.67663946    -0.02500
O495        O  0.64089198  0.66515630  0.40404593    -0.78600
C496        C  0.73742985  0.72020056  0.29828947     0.82500
O497        O  0.58272992  0.68271556  0.21039233    -0.79700
O498        O  0.71030494  0.63750455  0.13691498    -0.81100
O499        O  0.71073292  0.53742103  0.31353977    -0.80900
O500        O  0.64799374  0.58964907  0.40622551    -0.79600
Zn501      Zn  0.65441725  0.68207111  0.31868541     1.55700
O502        O  0.74940057  0.57478918  0.24910883    -0.81000
Cd503      Cd  0.65992562  0.57450141  0.31839981     1.59700
Cd504      Cd  0.61976691  0.62529720  0.20428862     1.59600
O505        O  0.61634495  0.53132515  0.28945092    -0.81000
O506        O  0.66231505  0.62951480  0.26715097    -1.91500
Cd507      Cd  0.71600003  0.63270592  0.22907375     1.59900
O508        O  0.58714213  0.56337215  0.21180512    -0.80900
O509        O  0.74704006  0.68924766  0.26087793    -0.79600
C510        C  0.58445377  0.71717563  0.24572480     0.83000
C511        C  0.63988367  0.62728055  0.43213943     0.82600
O512        O  0.70335292  0.72054296  0.32213832    -0.78500
C513        C  0.74251910  0.54111543  0.28384172     0.83400
O514        O  0.61035274  0.72013745  0.28666650    -0.78600
C515        C  0.59058785  0.53010500  0.24846820     0.83600
C516        C  0.68104998  0.63305803  0.10148966     0.83900
O517        O  0.64586251  0.62682054  0.12041354    -0.81000
C518        C  0.71448585  0.62386247  0.84283089    -0.02500
O519        O  0.91278405  0.83206074  0.89444443    -0.78600
C520        C  0.81829174  0.77898968  0.77777318     0.82500
O521        O  0.96981381  0.81616930  0.70036050    -0.79700
O522        O  0.84173410  0.88169482  0.63580288    -0.81100
O523        O  0.85161658  0.96607547  0.81959913    -0.80900
O524        O  0.91702471  0.90812393  0.89683984    -0.79600
Zn525      Zn  0.89894014  0.81812142  0.80898208     1.55700
O526        O  0.80658990  0.93005414  0.76428544    -0.81000
Cd527      Cd  0.90171960  0.92711017  0.81251612     1.59700
Cd528      Cd  0.93404473  0.87355156  0.69599433     1.59600
O529        O  0.94827081  0.96621093  0.78231477    -0.81000
O530        O  0.89314946  0.87268722  0.76112035    -1.91500
Cd531      Cd  0.83826245  0.87496432  0.72798902     1.59900
O532        O  0.97146670  0.93043013  0.70181980    -0.80900
O533        O  0.80810732  0.81377931  0.74716488    -0.79600
C534        C  0.96805082  0.78287735  0.73682151     0.83000
C535        C  0.92019802  0.86935999  0.92206288     0.82600
O536        O  0.85141722  0.77725955  0.80404972    -0.78500
C537        C  0.81660556  0.96277561  0.79935410     0.83400
O538        O  0.94257533  0.78091100  0.77810208    -0.78600
C539        C  0.97314014  0.96276001  0.74007341     0.83600
C540        C  0.87013614  0.87890985  0.59851258     0.83900
O541        O  0.90593257  0.87410515  0.61459349    -0.81000
C542        C  0.83844426  0.88212111  0.34125478    -0.02500
C543        C  0.47537752  0.87485171  0.25404213    -0.02500
C544        C  0.07297240  0.62482479  0.75012344    -0.02500
O545        O  0.13678792  0.59972306  0.02139394    -0.78600
C546        C  0.23337864  0.54104139  0.12821814     0.82500
O547        O  0.07997339  0.56973635  0.21360192    -0.79700
O548        O  0.20674544  0.62618407  0.28939921    -0.81100
O549        O  0.20353511  0.72506285  0.11306746    -0.80900
O550        O  0.13641712  0.67602320  0.02437687    -0.79600
Zn551      Zn  0.15101793  0.57966727  0.10473998     1.55700
O552        O  0.24366395  0.68731334  0.17440181    -0.81000
Cd553      Cd  0.15154523  0.68817962  0.11264823     1.59700
Cd554      Cd  0.11582768  0.62762979  0.22356891     1.59600
O555        O  0.10762319  0.72780667  0.14961777    -0.81000
O556        O  0.15746551  0.63052494  0.15934164    -1.91500
Cd557      Cd  0.21139908  0.62886060  0.19670392     1.59900
O558        O  0.07964708  0.68490064  0.22056287    -0.80900
O559        O  0.24298901  0.57217979  0.16571419    -0.79600
C560        C  0.08086631  0.53867029  0.17355003     0.83000
C561        C  0.13164184  0.63834116  0.99639332     0.82600
O562        O  0.19990271  0.54094587  0.10241074    -0.78500
C563        C  0.23638855  0.72073001  0.13975638     0.83400
O564        O  0.10647662  0.53979818  0.13206352    -0.78600
C565        C  0.08164405  0.72158978  0.18993648     0.83600
C566        C  0.17771359  0.62565281  0.32581719     0.83900
O567        O  0.14211365  0.62600167  0.30731748    -0.81000
C568        C  0.21252244  0.63763291  0.58480689    -0.02500
O569        O  0.34224528  0.79646854  0.61209838    -0.78600
C570        C  0.41290143  0.88428851  0.49826746     0.82500
O571        O  0.46586457  0.82713412  0.71783085    -0.79700
O572        O  0.44375475  0.97748732  0.64097178    -0.81100
O573        O  0.30673805  0.95092445  0.66981392    -0.80900
O574        O  0.30128665  0.83415009  0.67255692    -0.79600
Zn575      Zn  0.39357641  0.83146592  0.61146182     1.55700
O576        O  0.35103962  0.98299794  0.60935645    -0.81000
Cd577      Cd  0.33554151  0.89088314  0.69799232     1.59700
Cd578      Cd  0.43184114  0.88617818  0.72604908     1.59600
O579        O  0.34091384  0.89112787  0.79049982    -0.81000
O580        O  0.38964784  0.88567401  0.66217870    -1.91500
Cd581      Cd  0.39782758  0.93961971  0.61088636     1.59900
O582        O  0.40532164  0.88637003  0.80975209    -0.80900
O583        O  0.41030352  0.92250468  0.52513802    -0.79600
C584        C  0.46391160  0.79363786  0.68114774     0.83000
C585        C  0.30883947  0.80080862  0.63741099     0.82600
O586        O  0.40640918  0.84656219  0.52517456    -0.78500
C587        C  0.31770004  0.98323643  0.63497635     0.83400
O588        O  0.43763689  0.79113316  0.64066615    -0.78600
C589        C  0.36952674  0.88862063  0.82737021     0.83600
C590        C  0.46872685  0.97713192  0.68299954     0.83900
O591        O  0.46929957  0.94433887  0.72054911    -0.81000
C592        C  0.33606575  0.87966380  0.08628276    -0.02500
C593        C  0.39113377  0.89856999  0.93362160    -0.26400
C594        C  0.36103175  0.88812672  0.89266165    -0.14400
C595        C  0.32315846  0.87786510  0.91497626     0.36200
C596        C  0.31640287  0.87765216  0.97645029    -0.25800
C597        C  0.34699571  0.88380525  0.01857876    -0.15100
C598        C  0.38448616  0.89770555  0.99560886     0.37300
N599        N  0.41563325  0.91307264  0.03393502    -0.89300
H600        H  0.42011736  0.90845293  0.91751446     0.18400
H601        H  0.28680856  0.86996212  0.99127847     0.18400
N602        N  0.29136788  0.86613932  0.87566544    -0.88300
H603        H  0.42296219  0.94686383  0.02262256     0.35800
H604        H  0.44033369  0.89265719  0.02607738     0.40800
H605        H  0.26837869  0.88914427  0.88319148     0.40500
H606        H  0.28125763  0.83321338  0.88659765     0.35400
C607        C  0.23879076  0.71951926  0.55815780    -0.26400
C608        C  0.23222371  0.68513232  0.60173526    -0.14400
C609        C  0.24464260  0.69641616  0.66130610     0.36200
C610        C  0.26805979  0.73540360  0.67203785    -0.25800
C611        C  0.27870893  0.76510028  0.62618265    -0.15100
C612        C  0.26263931  0.75804916  0.56922360     0.37300
N613        N  0.27004603  0.78961563  0.52166178    -0.89300
H614        H  0.22603885  0.71684896  0.51432627     0.18400
H615        H  0.27906433  0.74178487  0.71661736     0.18400
N616        N  0.23450734  0.66957222  0.71246224    -0.88300
H617        H  0.30038728  0.79094093  0.51350436     0.35800
H618        H  0.26089288  0.82218420  0.53530158     0.40800
H619        H  0.24304842  0.63558189  0.70689878     0.40500
H620        H  0.20423779  0.67175317  0.72012826     0.35400
C621        C  0.28100477  0.60395465  0.61382526    -0.26400
C622        C  0.24136802  0.59667632  0.59609858    -0.14400
C623        C  0.22922642  0.55020222  0.58609743     0.36200
C624        C  0.25398651  0.51376290  0.60153957    -0.25800
C625        C  0.29203856  0.52189751  0.62296698    -0.15100
C626        C  0.30603155  0.56758894  0.62720945     0.37300
N627        N  0.34543431  0.57835488  0.64606799    -0.89300
H628        H  0.29357381  0.63803065  0.61687707     0.18400
H629        H  0.24391294  0.97880115  0.59278109     0.18400
N630        N  0.19101845  0.53966424  0.56226936    -0.88300
H631        H  0.36535102  0.56511105  0.61507586     0.35800
H632        H  0.35033345  0.56299339  0.68734032     0.40800
H633        H  0.17594847  0.51870001  0.59254230     0.40500
H634        H  0.19486953  0.52093998  0.52294571     0.35400
C635        C  0.22455416  0.63265074  0.41165664    -0.26400
C636        C  0.18581382  0.62575569  0.39138955    -0.14400
C637        C  0.15576760  0.61959249  0.43430151     0.36200
C638        C  0.16458687  0.62268446  0.49533796    -0.25800
C639        C  0.20296529  0.63340019  0.51637828    -0.15100
C640        C  0.23346394  0.63577016  0.47262273     0.37300
N641        N  0.27387831  0.64193363  0.48971015    -0.89300
H642        H  0.24847292  0.63620080  0.37993419     0.18400
H643        H  0.14064668  0.61608529  0.52593374     0.18400
N644        N  0.11605334  0.60952534  0.41654491    -0.88300
H645        H  0.28485774  0.67153508  0.46910633     0.35800
H646        H  0.28985682  0.61396728  0.47360884     0.40800
H647        H  0.09780544  0.63502899  0.43398058     0.40500
H648        H  0.10766047  0.57819998  0.43550382     0.35400
C649        C  0.27493591  0.78832011  0.17261110    -0.26400
C650        C  0.26696949  0.75556480  0.12862383    -0.14400
C651        C  0.28541622  0.75935639  0.07256819     0.36200
C652        C  0.30870200  0.79799555  0.06019643    -0.25800
C653        C  0.31400387  0.83401590  0.10202635    -0.15100
C654        C  0.29837582  0.82705801  0.16025648     0.37300
N655        N  0.30402041  0.86084126  0.20600520    -0.89300
H656        H  0.26123354  0.78507561  0.21603093     0.18400
H657        H  0.32335512  0.79856462  0.01756021     0.18400
N658        N  0.28111161  0.72489350  0.02689589    -0.88300
H659        H  0.27632841  0.87224977  0.21992582     0.35800
H660        H  0.31764587  0.84503563  0.24215435     0.40800
H661        H  0.26405804  0.69705290  0.04118866     0.40500
H662        H  0.30915486  0.71184180  0.01798822     0.35400
C663        C  0.32401954  0.96703451  0.09575999    -0.26400
C664        C  0.30789595  0.92193785  0.09656540    -0.14400
C665        C  0.26567617  0.91881952  0.09900149     0.36200
C666        C  0.24310754  0.95784045  0.11090731    -0.25800
C667        C  0.26014961  0.50199086  0.11642143    -0.15100
C668        C  0.30105966  0.50702433  0.10703643     0.37300
N669        N  0.31898265  0.55191337  0.10707207    -0.89300
H670        H  0.35523353  0.97155662  0.08706760     0.18400
H671        H  0.21132186  0.95396953  0.11391846     0.18400
N672        N  0.24455914  0.87724192  0.08557396    -0.88300
H673        H  0.34892354  0.54979203  0.09627001     0.35800
H674        H  0.31777060  0.56460449  0.15058304     0.40800
H675        H  0.22646841  0.86915682  0.12185419     0.40500
H676        H  0.22628966  0.88318050  0.04898740     0.35400
C677        C  0.17104345  0.59899220  0.66854656    -0.26400
C678        C  0.17454167  0.63372198  0.62476971    -0.14400
C679        C  0.14303278  0.66599433  0.62235999     0.36200
C680        C  0.10944605  0.65999004  0.65794450    -0.25800
C681        C  0.10747445  0.62695213  0.70380262    -0.15100
C682        C  0.13858961  0.59504910  0.70654222     0.37300
N683        N  0.13831472  0.55907615  0.74988281    -0.89300
H684        H  0.19464041  0.57556981  0.67758305     0.18400
H685        H  0.08535719  0.68305765  0.64981232     0.18400
N686        N  0.14450565  0.70710748  0.58739849    -0.88300
H687        H  0.16352467  0.56253229  0.77633571     0.35800
H688        H  0.13989345  0.52767398  0.72736498     0.40800
H689        H  0.15026098  0.70007362  0.54284197     0.40500
H690        H  0.16602261  0.72922647  0.60456893     0.35400
C691        C  0.12801874  0.64553119  0.82776827    -0.26400
C692        C  0.08864052  0.63136047  0.81557677    -0.14400
C693        C  0.06293997  0.62682829  0.86560345     0.36200
C694        C  0.07784611  0.62917344  0.92369497    -0.25800
C695        C  0.11753050  0.63899300  0.93440759    -0.15100
C696        C  0.14253517  0.64891912  0.88607554     0.37300
N697        N  0.18289500  0.66212588  0.89495605    -0.89300
H698        H  0.14811494  0.65458461  0.79232790     0.18400
H699        H  0.05806524  0.62331102  0.96091331     0.18400
N700        N  0.02157002  0.61877746  0.85795474    -0.88300
H701        H  0.19695330  0.63596438  0.91828565     0.35800
H702        H  0.18353633  0.69182832  0.92119433     0.40800
H703        H  0.00643424  0.64560457  0.87861017     0.40500
H704        H  0.01390741  0.58832513  0.87976449     0.35400
C705        C  0.43369917  0.84141748  0.16596925    -0.26400
C706        C  0.44105164  0.87680135  0.20746096    -0.14400
C707        C  0.41315761  0.91298375  0.20924090     0.36200
C708        C  0.37952097  0.91192664  0.17302795    -0.25800
C709        C  0.37345462  0.87851991  0.12818094    -0.15100
C710        C  0.40183559  0.84218212  0.12623816     0.37300
N711        N  0.39894441  0.80367090  0.08662050    -0.89300
H712        H  0.45141019  0.81095895  0.16505070     0.18400
H713        H  0.35780317  0.93754719  0.18278390     0.18400
N714        N  0.41833353  0.95118850  0.24889729    -0.88300
H715        H  0.39448375  0.81419081  0.04292516     0.35800
H716        H  0.37676860  0.78140083  0.10112806     0.40800
H717        H  0.41884212  0.98129496  0.22372961     0.40500
H718        H  0.39392029  0.95249748  0.27734329     0.35400
C719        C  0.46178628  0.91797470  0.35327411    -0.26400
C720        C  0.45391507  0.87981740  0.31575969    -0.14400
C721        C  0.42574475  0.84677677  0.33739146     0.36200
C722        C  0.41277067  0.84883273  0.39670695    -0.25800
C723        C  0.42501633  0.88424452  0.43494791    -0.15100
C724        C  0.44898213  0.91969120  0.41216738     0.37300
N725        N  0.46186420  0.95705831  0.44924424    -0.89300
H726        H  0.47824330  0.94748364  0.33793547     0.18400
H727        H  0.39291629  0.82236025  0.41301918     0.18400
N728        N  0.41048984  0.80988766  0.30160061    -0.88300
H729        H  0.45255431  0.98770328  0.42993110     0.35800
H730        H  0.49271377  0.95730734  0.44997940     0.40800
H731        H  0.43345431  0.79066130  0.28372592     0.40500
H732        H  0.39323408  0.82331153  0.26756725     0.35400
C733        C  0.01007665  0.52568966  0.68169588    -0.26400
C734        C  0.00519657  0.99711359  0.73749385    -0.14400
C735        C  0.02914560  0.00522703  0.78763615     0.36200
C736        C  0.05369296  0.54267628  0.78448935    -0.25800
C737        C  0.05340904  0.57670440  0.73988558    -0.15100
C738        C  0.03494117  0.56470082  0.68494838     0.37300
N739        N  0.03851624  0.59408611  0.63421864    -0.89300
H740        H  0.99311546  0.51923232  0.64165521     0.18400
H741        H  0.07214801  0.54595031  0.82340503     0.18400
N742        N  0.02960080  0.97445619  0.83728578    -0.88300
H743        H  0.05034717  0.57485586  0.59923122     0.35800
H744        H  0.01032598  0.60452399  0.62160719     0.40800
H745        H  0.03617286  0.94156288  0.82159494     0.40500
H746        H  0.00173515  0.97370637  0.85712181     0.35400
C747        C  0.97856367  0.70038648  0.73009200    -0.26400
C748        C  0.99516712  0.74426832  0.73208008    -0.14400
C749        C  0.03589516  0.74949352  0.74114291     0.36200
C750        C  0.05922529  0.71051954  0.74717803    -0.25800
C751        C  0.04344094  0.66533846  0.74246733    -0.15100
C752        C  0.00146954  0.66115929  0.73705693     0.37300
N753        N  0.98071804  0.61850212  0.74407235    -0.89300
H754        H  0.94678389  0.69651187  0.72659188     0.18400
H755        H  0.09047973  0.71555220  0.75515969     0.18400
N756        N  0.05403765  0.79386028  0.74706733    -0.88300
H757        H  0.96339580  0.61296101  0.70620809     0.35800
H758        H  0.96150991  0.62141002  0.78032001     0.40800
H759        H  0.04061729  0.81113933  0.78246899     0.40500
H760        H  0.04893690  0.81225465  0.70802345     0.35400
C761        C  0.87924747  0.84858371  0.49640689    -0.26400
C762        C  0.86161039  0.88062654  0.53421714    -0.14400
C763        C  0.83618409  0.91340608  0.51016453     0.36200
C764        C  0.82998757  0.91486176  0.44850593    -0.25800
C765        C  0.84817127  0.88331554  0.40907468    -0.15100
C766        C  0.87185284  0.84853395  0.43505623     0.37300
N767        N  0.88838877  0.81263011  0.39936121    -0.89300
H768        H  0.89814096  0.82240986  0.51486451     0.18400
H769        H  0.80893341  0.93957494  0.43287274     0.18400
N770        N  0.81664275  0.94557714  0.54822599    -0.88300
H771        H  0.87736612  0.78129063  0.41501926     0.35800
H772        H  0.91895312  0.81256760  0.40534070     0.40800
H773        H  0.78622600  0.94153560  0.54223490     0.40500
H774        H  0.82451400  0.97867892  0.53456278     0.35400
C775        C  0.79942019  0.53521192  0.85374161    -0.26400
C776        C  0.78779616  0.99908170  0.81663186    -0.14400
C777        C  0.74709710  0.49984831  0.79681409     0.36200
C778        C  0.72306532  0.53774749  0.80992695    -0.25800
C779        C  0.73790809  0.57744557  0.83922150    -0.15100
C780        C  0.77565615  0.57318210  0.86626743     0.37300
N781        N  0.79127719  0.60854206  0.90406906    -0.89300
H782        H  0.82884138  0.53473082  0.87247605     0.18400
H783        H  0.69273710  0.53595174  0.79538817     0.18400
N784        N  0.73211436  0.96086478  0.76522829    -0.88300
H785        H  0.81793362  0.62028594  0.88598274     0.35800
H786        H  0.79729552  0.59409620  0.94556701     0.40800
H787        H  0.72210845  0.97256344  0.72403978     0.40500
H788        H  0.70776484  0.94843628  0.78902316     0.35400
C789        C  0.77559655  0.65836413  0.78716761    -0.26400
C790        C  0.74041446  0.66552204  0.82011935    -0.14400
C791        C  0.72900180  0.71232657  0.82863048     0.36200
C792        C  0.75393821  0.74846536  0.81100231    -0.25800
C793        C  0.79062632  0.74011250  0.78552724    -0.15100
C794        C  0.80119097  0.69454578  0.77221075     0.37300
N795        N  0.83752930  0.68396914  0.74272270    -0.89300
H796        H  0.78422831  0.62437831  0.77325982     0.18400
H797        H  0.74533252  0.78350797  0.82045510     0.18400
N798        N  0.69309315  0.72410583  0.85815113    -0.88300
H799        H  0.86100190  0.69476299  0.76955228     0.35800
H800        H  0.83868916  0.70215437  0.70272882     0.40800
H801        H  0.67658154  0.74442713  0.82931847     0.40500
H802        H  0.69995951  0.74400669  0.89561257     0.35400
C803        C  0.53573361  0.48458866  0.19971617    -0.26400
C804        C  0.56409511  0.48880323  0.24496631    -0.14400
C805        C  0.56429386  0.95381650  0.28818009     0.36200
C806        C  0.53771673  0.91705724  0.28631361    -0.25800
C807        C  0.50675249  0.91417497  0.24443277    -0.15100
C808        C  0.50793792  0.94650954  0.19685627     0.37300
N809        N  0.48407101  0.94089468  0.14481023    -0.89300
H810        H  0.53468759  0.51004850  0.16474786     0.18400
H811        H  0.53976963  0.89187330  0.32131174     0.18400
N812        N  0.59293980  0.95513710  0.33504513    -0.88300
H813        H  0.50288212  0.43864833  0.10924565     0.35800
H814        H  0.46750177  0.97065745  0.13911255     0.40800
H815        H  0.60992280  0.92541097  0.33225972     0.40500
H816        H  0.57798399  0.95481754  0.37578539     0.35400
C817        C  0.53706388  0.76588624  0.29726058    -0.26400
C818        C  0.55459852  0.75405089  0.24330074    -0.14400
C819        C  0.54677994  0.78128079  0.19271317     0.36200
C820        C  0.52074868  0.81862622  0.19790553    -0.25800
C821        C  0.50108884  0.82983868  0.25179817    -0.15100
C822        C  0.51230488  0.80373204  0.30308209     0.37300
N823        N  0.50224544  0.81698519  0.36259405    -0.89300
H824        H  0.54441656  0.74670526  0.33698175     0.18400
H825        H  0.51637593  0.84001096  0.15915517     0.18400
N826        N  0.56563336  0.77363188  0.13620873    -0.88300
H827        H  0.52826104  0.82349411  0.38623947     0.35800
H828        H  0.48764526  0.78944406  0.38299491     0.40800
H829        H  0.58512774  0.74619948  0.13770055     0.40500
H830        H  0.58269614  0.80274466  0.12657881     0.35400
C831        C  0.72411334  0.65894930  0.94853918    -0.26400
C832        C  0.70317427  0.62815012  0.91062940    -0.14400
C833        C  0.67459844  0.59880344  0.93900384     0.36200
C834        C  0.66663588  0.60336221  0.99994264    -0.25800
C835        C  0.68810761  0.63353935  0.03623924    -0.15100
C836        C  0.71715646  0.66152520  0.01006419     0.37300
N837        N  0.73977865  0.69292807  0.04574581    -0.89300
H838        H  0.74777398  0.68024245  0.93163576     0.18400
H839        H  0.64484109  0.58071283  0.01992090     0.18400
N840        N  0.65437653  0.56190280  0.90935943    -0.88300
H841        H  0.73564645  0.72599696  0.02907330     0.35800
H842        H  0.76959394  0.68480157  0.04084208     0.40800
H843        H  0.67451538  0.53698262  0.89661716     0.40500
H844        H  0.63806889  0.57333340  0.87326441     0.35400
C845        C  0.75774445  0.96040932  0.26953199    -0.26400
C846        C  0.77059779  0.50321264  0.28841849    -0.14400
C847        C  0.80640195  0.50709784  0.31958540     0.36200
C848        C  0.82806879  0.96921203  0.33177439    -0.25800
C849        C  0.81392136  0.92433318  0.31905953    -0.15100
C850        C  0.77987080  0.92121459  0.28151981     0.37300
N851        N  0.76798476  0.87934503  0.25278666    -0.89300
H852        H  0.73066898  0.95686121  0.24419120     0.18400
H853        H  0.85545342  0.97386576  0.35544367     0.18400
N854        N  0.82018572  0.55036925  0.34211814    -0.88300
H855        H  0.76879463  0.88451175  0.20677248     0.35800
H856        H  0.73871334  0.87218933  0.26452819     0.40800
H857        H  0.79868930  0.56355660  0.37071685     0.40500
H858        H  0.82346769  0.57286023  0.30628055     0.35400
C859        C  0.82848240  0.79773140  0.30389159    -0.26400
C860        C  0.81409686  0.83644488  0.33520749    -0.14400
C861        C  0.77651073  0.83172484  0.36292329     0.36200
C862        C  0.75294563  0.79301951  0.35170311    -0.25800
C863        C  0.76569831  0.75754536  0.31412760    -0.15100
C864        C  0.80465335  0.75919914  0.29227228     0.37300
N865        N  0.82043972  0.72197513  0.25817830    -0.89300
H866        H  0.85849208  0.79661150  0.28780933     0.18400
H867        H  0.72370921  0.79181860  0.37120382     0.18400
N868        N  0.76084637  0.86751632  0.39962081    -0.88300
H869        H  0.84543493  0.70988306  0.28014422     0.35800
H870        H  0.82937549  0.73477558  0.21683818     0.40800
H871        H  0.75470672  0.85375460  0.44156278     0.40500
H872        H  0.73426459  0.87844308  0.38111399     0.35400
C873        C  0.64369097  0.65013517  0.81808543    -0.26400
C874        C  0.67751112  0.62537362  0.80120958    -0.14400
C875        C  0.67850264  0.61047569  0.74114042     0.36200
C876        C  0.64367039  0.60908165  0.70764184    -0.25800
C877        C  0.61026431  0.63587319  0.72269064    -0.15100
C878        C  0.61350584  0.66061112  0.77749631     0.37300
N879        N  0.58900771  0.69878086  0.79167536    -0.89300
H880        H  0.64173099  0.66512129  0.86201255     0.18400
H881        H  0.64472731  0.58987980  0.66645578     0.18400
N882        N  0.71476449  0.59781335  0.71283622    -0.88300
H883        H  0.57649444  0.69337055  0.83366897     0.35800
H884        H  0.60688478  0.72811644  0.79453159     0.40800
H885        H  0.71968224  0.62040752  0.67750330     0.40500
H886        H  0.71138384  0.56491981  0.69466655     0.35400
C887        C  0.55361390  0.55924106  0.72281942    -0.26400
C888        C  0.54551505  0.59644935  0.68396443    -0.14400
C889        C  0.50994910  0.59323066  0.64957437     0.36200
C890        C  0.48579921  0.55481885  0.65386250    -0.25800
C891        C  0.49449054  0.51769667  0.69089471    -0.15100
C892        C  0.52994068  0.02012186  0.72307395     0.37300
N893        N  0.53934480  0.98308567  0.76250918    -0.89300
H894        H  0.57965762  0.55949755  0.75046230     0.18400
H895        H  0.45945304  0.55437009  0.62657834     0.18400
N896        N  0.49721438  0.62724930  0.60785133    -0.88300
H897        H  0.51763618  0.98213636  0.79558082     0.35800
H898        H  0.56602941  0.98959776  0.78436275     0.40800
H899        H  0.51949192  0.63619771  0.57800919     0.40500
H900        H  0.48607612  0.65581961  0.62997458     0.35400
C901        C  0.54790798  0.71584305  0.63748075    -0.26400
C902        C  0.54881453  0.68256590  0.68362510    -0.14400
C903        C  0.51948145  0.68812525  0.72991034     0.36200
C904        C  0.49355669  0.72553975  0.72894155    -0.25800
C905        C  0.49418492  0.75761808  0.68300409    -0.15100
C906        C  0.52199604  0.75287790  0.63695867     0.31700
N907        N  0.52433201  0.78414442  0.58749480    -0.89300
H908        H  0.56512737  0.71273599  0.59776135     0.18400
H909        H  0.47161126  0.72867442  0.76383756     0.18400
N910        N  0.51361329  0.65622780  0.77793989    -0.88300
H911        H  0.55242072  0.79924909  0.58808774     0.35800
H912        H  0.50442882  0.81108099  0.59132301     0.40800
H913        H  0.53703135  0.63394814  0.78365307     0.40500
H914        H  0.48820655  0.63686135  0.76888754     0.35400
C915        C  0.58797076  0.59489453  0.57575082    -0.26400
C916        C  0.59446679  0.63402303  0.61263421    -0.14400
C917        C  0.62359168  0.66591570  0.59219725     0.36200
C918        C  0.63822718  0.66314668  0.53353943    -0.25800
C919        C  0.62742022  0.62682881  0.49553557    -0.15100
C920        C  0.60341379  0.59128168  0.51845909     0.37300
N921        N  0.59298837  0.55133209  0.48428224    -0.89300
H922        H  0.57078997  0.56572952  0.59038880     0.18400
H923        H  0.65837975  0.68950222  0.51776316     0.18400
N924        N  0.63796311  0.70164208  0.63072843    -0.88300
H925        H  0.61858285  0.53312158  0.47423569     0.35800
H926        H  0.57928943  0.56158987  0.44492269     0.40800
H927        H  0.63336542  0.73324804  0.61009185     0.40500
H928        H  0.66839619  0.69748886  0.63550091     0.35400
C929        C  0.94639965  0.88560785  0.27502652    -0.26400
C930        C  0.93906840  0.87656275  0.21430515    -0.14400
C931        C  0.89907907  0.86748529  0.19824323     0.36200
C932        C  0.86898543  0.87382519  0.23959831    -0.25800
C933        C  0.87590954  0.88288874  0.30024075    -0.15100
C934        C  0.91602614  0.89210469  0.31679128     0.37300
N935        N  0.92764570  0.91394455  0.37145133    -0.89300
H936        H  0.97653162  0.89132518  0.28950346     0.18400
H937        H  0.83929352  0.86742660  0.22433330     0.18400
N938        N  0.88801948  0.84811969  0.14186902    -0.88300
H939        H  0.93756928  0.88974214  0.40188236     0.35800
H940        H  0.90593886  0.93487444  0.38936838     0.40800
H941        H  0.87404833  0.81651069  0.14934829     0.40500
H942        H  0.86743455  0.86973562  0.12197562     0.35400
C943        C  0.03917604  0.83929074  0.21257097    -0.26400
C944        C  0.00037252  0.83308490  0.19033495    -0.14400
C945        C  0.98611304  0.78700791  0.18743901     0.36200
C946        C  0.01268952  0.75024492  0.19126132    -0.25800
C947        C  0.05298456  0.75845098  0.20036651    -0.15100
C948        C  0.06577261  0.80311347  0.21485888     0.37300
N949        N  0.10575602  0.81282355  0.23169409    -0.89300
H950        H  0.05028159  0.87273811  0.22542720     0.18400
H951        H  0.00214697  0.71552487  0.18342200     0.18400
N952        N  0.94528315  0.77730034  0.17683592    -0.88300
H953        H  0.12438557  0.80468737  0.19620017     0.35800
H954        H  0.11288506  0.79205323  0.26789657     0.40800
H955        H  0.93462017  0.75766760  0.21233022     0.40500
H956        H  0.94289329  0.75742898  0.13815035     0.35400
C957        C  0.99269863  0.95895142  0.20654961    -0.26400
C958        C  0.00122312  0.91996814  0.17101161    -0.14400
C959        C  0.03469283  0.92328218  0.13273692     0.36200
C960        C  0.05921874  0.96200341  0.13405140    -0.25800
C961        C  0.05224793  0.49963036  0.17403919    -0.15100
C962        C  0.01714917  0.49922323  0.20803477     0.37300
N963        N  0.00687535  0.53815792  0.24418481    -0.89300
H964        H  0.96572087  0.96070204  0.23176409     0.18400
H965        H  0.08473309  0.96237214  0.10495048     0.18400
N966        N  0.04462610  0.88664069  0.09282385    -0.88300
H967        H  0.98077391  0.53184050  0.26772782     0.35800
H968        H  0.00113957  0.56549266  0.21554169     0.40800
H969        H  0.07317991  0.87571123  0.10263445     0.40500
H970        H  0.04468271  0.89954260  0.04946030     0.35400
C971        C  0.97030744  0.83503199  0.06624974    -0.26400
C972        C  0.96081097  0.87214733  0.10440913    -0.14400
C973        C  0.93882685  0.90883080  0.07953364     0.36200
C974        C  0.92567026  0.90652436  0.02073387    -0.25800
C975        C  0.93355431  0.86849438  0.98461680    -0.15100
C976        C  0.95626550  0.83234018  0.00751411     0.37300
N977        N  0.96613951  0.79363613  0.97061683    -0.89300
H978        H  0.98996626  0.80845065  0.08045071     0.18400
H979        H  0.90862950  0.93481283  0.00344714     0.18400
N980        N  0.92866180  0.94819879  0.11458963    -0.88300
H981        H  0.98223011  0.76947481  0.99458259     0.35800
H982        H  0.98466744  0.80547863  0.93664309     0.40800
H983        H  0.94025211  0.97735604  0.09368672     0.40500
H984        H  0.89794300  0.95105087  0.11530556     0.35400
loop_ 
_geom_bond_atom_site_label_1 
_geom_bond_atom_site_label_2 
_geom_bond_distance 
_geom_bond_site_symmetry_2 
_ccdc_geom_bond_type 
C1          C438   1.567       .  S
C1          C452   1.572       .  S
C1          C466   1.572   1_655  S
C1          C480   1.563       .  S
C2          C385   1.590       .  S
C2          C396   1.570       .  S
C2          C410   1.587       .  S
C2          C424   1.587       .  S
O3           C19   1.272       .  A
O3           Zn9   2.025       .  S
C4           O20   1.271       .  A
C4           O17   1.275       .  A
C4          C371   1.483       .  S
O5           C18   1.279       .  A
O5          Cd12   2.104       .  S
O6           C24   1.278       .  A
O6          Cd15   2.078       .  S
O7           C21   1.271       .  A
O7          Cd11   2.045       .  S
O8           C19   1.271       .  A
O8          Cd11   2.057       .  S
Zn9          O20   1.984       .  S
Zn9          O22   1.994       .  S
Zn9          O14   1.935       .  S
O10          C21   1.275       .  A
O10         Cd15   2.089       .  S
Cd11         O13   2.039       .  S
Cd11         O14   1.973       .  S
Cd12         O16   2.109       .  S
Cd12         O25   2.082       .  S
Cd12         O14   2.023       .  S
O13          C23   1.271       .  A
O14         Cd15   2.007       .  S
Cd15         O17   2.071       .  S
O16          C23   1.280       .  A
C18          O22   1.273       .  A
C18         C326   1.481       .  S
C19         C427   1.483       .  S
C21         C354   1.470       .  S
C23         C312   1.496   1_545  S
C24          O25   1.278       .  A
C24         C343   1.483       .  S
C26         C287   1.575       .  S
C26         C298   1.579       .  S
C26         C340   1.574       .  S
C26         C382   1.567       .  S
O27          C43   1.274       .  A
O27         Zn33   2.019       .  S
C28          O44   1.272       .  A
C28          O41   1.277       .  A
C28         C301   1.476       .  S
O29          C42   1.274       .  A
O29         Cd36   2.081       .  S
O30          C48   1.279       .  A
O30         Cd39   2.089       .  S
O31          C45   1.274       .  A
O31         Cd35   2.056       .  S
O32          C43   1.271       .  A
O32         Cd35   2.053       .  S
Zn33         O44   2.005       .  S
Zn33         O46   1.973       .  S
Zn33         O38   1.934       .  S
O34          C45   1.279       .  A
O34         Cd39   2.103       .  S
Cd35         O37   2.055       .  S
Cd35         O38   1.981       .  S
Cd36         O40   2.086       .  S
Cd36         O49   2.065       .  S
Cd36         O38   2.017       .  S
O37          C47   1.273       .  A
O38         Cd39   2.010       .  S
Cd39         O41   2.094       .  S
O40          C47   1.274       .  A
C42          O46   1.268       .  A
C42         C256   1.466       .  S
C43         C483   1.479       .  S
C45         C284   1.496       .  S
C47         C242   1.473   1_655  S
C48          O49   1.276       .  A
C48         C270   1.477       .  S
C50         C273   1.564       .  S
C50         C357   1.567       .  S
C50         C368   1.560       .  S
C50         C441   1.563       .  S
C51         C214   1.568       .  S
C51         C228   1.573       .  S
C51         C315   1.573       .  S
C51         C329   1.580       .  S
C52         C189   1.567       .  S
C52         C200   1.576       .  S
C52         C245   1.562       .  S
C52         C259   1.567       .  S
O53          C69   1.273   1_554  A
O53         Zn59   2.023       .  S
C54          O70   1.275       .  A
C54          O67   1.277       .  A
C54         C175   1.489       .  S
O55          C68   1.276       .  A
O55         Cd62   2.087       .  S
O56          C74   1.278       .  A
O56         Cd65   2.082       .  S
O57          C71   1.274       .  A
O57         Cd61   2.063       .  S
O58          C69   1.274   1_554  A
O58         Cd61   2.081       .  S
Zn59         O70   2.017       .  S
Zn59         O72   2.002       .  S
Zn59         O64   1.936       .  S
O60          C71   1.275       .  A
O60         Cd65   2.084       .  S
Cd61         O63   2.071       .  S
Cd61         O64   1.998       .  S
Cd62         O66   2.089       .  S
Cd62         O75   2.083       .  S
Cd62         O64   2.019       .  S
O63          C73   1.275       .  A
O64         Cd65   2.016       .  S
Cd65         O67   2.099       .  S
O66          C73   1.276       .  A
C68          O72   1.274       .  A
C68         C469   1.493   1_545  S
C69         C203   1.474       .  S
C71         C158   1.470       .  S
C73         C455   1.477       .  S
C74          O75   1.277       .  A
C74         C144   1.497       .  S
C76         C116   1.580       .  S
C76         C130   1.573       .  S
C76         C147   1.575       .  S
C76         C186   1.572       .  S
O77          C93   1.275       .  A
O77         Zn83   2.020       .  S
C78          O94   1.274       .  A
C78          O91   1.268       .  A
C78         C231   1.482       .  S
O79          C92   1.277       .  A
O79         Cd86   2.089       .  S
O80          C98   1.268       .  A
O80         Cd89   2.009       .  S
O81          C95   1.279       .  A
O81         Cd85   2.110       .  S
O82          C93   1.278       .  A
O82         Cd85   2.096       .  S
Zn83         O94   2.040       .  S
Zn83         O96   2.023       .  S
Zn83         O88   1.950       .  S
O84          C95   1.267       .  A
O84         Cd89   2.029       .  S
Cd85         O87   2.093       .  S
Cd85         O88   2.011       .  S
Cd86         O90   2.081       .  S
Cd86         O99   2.117       .  S
Cd86         O88   2.029       .  S
O87          C97   1.280       .  A
O88         Cd89   1.968       .  S
Cd89         O91   2.032       .  S
O90          C97   1.278       .  A
C92          O96   1.276       .  A
C92         C413   1.476       .  S
C93         C119   1.477       .  S
C95         C625   1.476       .  S
C97         C102   1.495       .  S
C98          O99   1.277       .  A
C98         C891   1.491       .  S
C100        C105   1.570       .  S
C100        C161   1.563       .  S
C100        C172   1.578       .  S
C100        C217   1.580       .  S
C101        C102   1.406       .  A
C101        C106   1.410       .  A
C101        H108   1.084       .  S
C102        C103   1.407       .  A
C103        C104   1.401       .  A
C103        N110   1.433       .  S
C104        C105   1.416   1_556  A
C104        H109   1.079       .  S
C105        C106   1.426   1_554  A
C106        N107   1.432   1_556  S
N107        H111   1.046       .  S
N107        H112   1.046       .  S
N110        H113   1.046       .  S
N110        H114   1.046       .  S
C115        C116   1.420       .  A
C115        C120   1.402       .  A
C115        H122   1.078       .  S
C116        C117   1.440       .  A
C117        C118   1.402       .  A
C117        N124   1.432       .  S
C118        C119   1.394       .  A
C118        H123   1.084       .  S
C119        C120   1.407       .  A
C120        N121   1.433       .  S
N121        H125   1.045       .  S
N121        H126   1.046       .  S
N124        H127   1.041       .  S
N124        H128   1.043       .  S
C129        C130   1.416       .  A
C129        C134   1.398       .  A
C129        H136   1.079       .  S
C130        C131   1.430       .  A
C131        C132   1.405       .  A
C131        N138   1.433       .  S
C132        C133   1.396       .  A
C132        H629   1.084   1_545  S
C133        C587   1.478   1_545  S
C133        C134   1.412       .  A
C134        N135   1.434       .  S
N135        H139   1.044       .  S
N135        H140   1.045       .  S
H137        C624   1.084       .  S
N138        H141   1.046       .  S
N138        H142   1.046       .  S
C143        C144   1.403       .  A
C143        C148   1.403       .  A
C143        H150   1.083       .  S
C144        C145   1.414       .  A
C145        C146   1.409       .  A
C145        N152   1.438       .  S
C146        C147   1.418       .  A
C146        H151   1.079       .  S
C147        C148   1.425       .  A
C148        N149   1.433       .  S
N149        H153   1.046       .  S
N149        H154   1.046       .  S
N152        H155   1.046       .  S
N152        H156   1.046       .  S
C157        C158   1.398       .  A
C157        C162   1.406       .  A
C157        H164   1.084       .  S
C158        C159   1.410       .  A
C159        C160   1.398       .  A
C159        N166   1.440       .  S
C160        C161   1.416       .  A
C160        H165   1.079       .  S
C161        C162   1.426       .  A
C162        N163   1.433       .  S
N163        H167   1.046       .  S
N163        H168   1.045       .  S
N166        H169   1.043       .  S
N166        H170   1.046       .  S
C171        C172   1.419       .  A
C171        C668   1.414       .  A
C171        H178   1.083       .  S
C172        C173   1.434       .  A
C173        C174   1.399       .  A
C173        N180   1.433       .  S
C174        C667   1.395       .  A
C174        H179   1.085       .  S
C175        C176   1.410       .  A
C175        C666   1.396   1_545  A
C176        C663   1.415   1_545  A
C176        N177   1.437       .  S
N177        H181   1.046       .  S
N177        H182   1.045       .  S
N180        H183   1.046       .  S
N180        H184   1.046       .  S
C185        C186   1.418       .  A
C185        C190   1.396       .  A
C185        H192   1.076       .  S
C186        C187   1.431       .  A
C187        C188   1.400       .  A
C187        N194   1.436       .  S
C188        C189   1.414       .  A
C188        H193   1.078       .  S
C189        C190   1.414       .  A
C190        N191   1.433       .  S
N191        H195   1.046       .  S
N191        H196   1.046       .  S
N194        H197   1.040       .  S
N194        H198   1.042       .  S
C199        C200   1.420       .  A
C199        C204   1.406       .  A
C199        H206   1.078       .  S
C200        C201   1.426       .  A
C201        C202   1.401       .  A
C201        N208   1.431       .  S
C202        C203   1.395       .  A
C202        H207   1.085       .  S
C203        C204   1.411       .  A
C204        N205   1.438       .  S
N205        H209   1.046       .  S
N205        H210   1.044       .  S
N208        H211   1.046       .  S
N208        H212   1.046       .  S
C213        C214   1.408       .  A
C213        C218   1.400       .  A
C213        H220   1.075       .  S
C214        C215   1.422       .  A
C215        C216   1.405       .  A
C215        N222   1.433       .  S
C216        C217   1.415       .  A
C216        H221   1.075       .  S
C217        C218   1.436       .  A
C218        N219   1.433       .  S
N219        H223   1.041       .  S
N219        H224   1.041       .  S
N222        H225   1.045       .  S
N222        H226   1.046       .  S
C227        C228   1.417       .  A
C227        C232   1.396       .  A
C227        H234   1.078       .  S
C228        C229   1.436       .  A
C229        C230   1.404       .  A
C229        N236   1.433       .  S
C230        C231   1.400       .  A
C230        H235   1.084       .  S
C231        C232   1.407       .  A
C232        N233   1.434       .  S
N233        H237   1.046       .  S
N233        H238   1.046       .  S
N236        H239   1.042       .  S
N236        H240   1.043       .  S
C241        C246   1.409       .  A
C241        C734   1.400   1_545  A
C241        H248   1.084   1_455  S
C242        C243   1.408       .  A
C242        C733   1.401       .  A
C243        C736   1.391       .  A
C243        N250   1.434       .  S
C244        C245   1.414       .  A
C244        C735   1.392       .  A
C244        H249   1.079       .  S
C245        C246   1.426       .  A
C246        N247   1.432       .  S
N247        H251   1.045       .  S
N247        H252   1.045       .  S
N250        H253   1.046       .  S
N250        H254   1.044       .  S
C255        C256   1.393       .  A
C255        C260   1.398   1_655  A
C255        H262   1.085       .  S
C256        C257   1.404   1_655  A
C257        C258   1.398       .  A
C257        N264   1.432       .  S
C258        C259   1.420       .  A
C258        H263   1.084       .  S
C259        C260   1.433       .  A
C260        N261   1.432   1_455  S
N261        H265   1.046       .  S
N261        H266   1.046       .  S
N264        H267   1.046       .  S
N264        H268   1.045       .  S
C269        C270   1.398       .  A
C269        C274   1.402       .  A
C269        H276   1.084       .  S
C270        C271   1.402       .  A
C271        C272   1.403       .  A
C271        N278   1.433       .  S
C272        C273   1.419       .  A
C272        H277   1.079       .  S
C273        C274   1.426       .  A
C274        N275   1.433       .  S
N275        H279   1.046       .  S
N275        H280   1.045       .  S
N278        H281   1.046       .  S
N278        H282   1.046       .  S
C283        C288   1.402       .  A
C283        C776   1.404   1_545  A
C283        H290   1.083       .  S
C284        C775   1.404       .  A
C284        C777   1.409       .  A
C285        C286   1.408   1_565  A
C285        C776   1.409       .  A
C285        N784   1.432       .  S
C286        C287   1.417       .  A
C286        H291   1.080       .  S
C287        C288   1.425       .  A
C288        N289   1.432       .  S
N289        H293   1.046       .  S
N289        H294   1.046       .  S
N292        C777   1.432       .  S
N292        H295   1.046       .  S
N292        H296   1.046       .  S
C297        C298   1.419       .  A
C297        C302   1.401       .  A
C297        H304   1.080       .  S
C298        C299   1.433       .  A
C299        C300   1.404       .  A
C299        N306   1.430       .  S
C300        C301   1.392       .  A
C300        H305   1.084       .  S
C301        C302   1.409       .  A
C302        N303   1.433       .  S
N303        H307   1.045       .  S
N303        H308   1.046       .  S
N306        H309   1.046       .  S
N306        H310   1.046       .  S
C311        C312   1.406       .  A
C311        C808   1.413       .  A
C311        H318   1.083   1_565  S
C312        C805   1.414       .  A
C313        C314   1.396       .  A
C313        C804   1.415       .  A
C313        N320   1.434       .  S
C314        C315   1.413       .  A
C314        H319   1.081       .  S
C315        C316   1.428       .  A
C316        C803   1.413       .  A
C316        N317   1.431       .  S
N317        H322   1.046       .  S
N317        H813   1.046       .  S
N320        H323   1.046       .  S
N320        H324   1.046       .  S
H321        N809   1.045       .  S
C325        C326   1.394       .  A
C325        C330   1.397       .  A
C325        H332   1.085       .  S
C326        C327   1.414       .  A
C327        C328   1.410       .  A
C327        N334   1.438       .  S
C328        C329   1.420       .  A
C328        H333   1.084       .  S
C329        C330   1.435       .  A
C330        N331   1.432       .  S
N331        H335   1.046       .  S
N331        H336   1.046       .  S
N334        H337   1.042       .  S
N334        H338   1.046       .  S
C339        C340   1.420       .  A
C339        C344   1.402   1_556  A
C339        H346   1.079       .  S
C340        C341   1.437       .  A
C341        C342   1.402       .  A
C341        N348   1.433       .  S
C342        C343   1.398   1_556  A
C342        H347   1.084   1_556  S
C343        C344   1.402       .  A
C344        N345   1.433       .  S
N345        H349   1.046       .  S
N345        H350   1.046       .  S
N348        H351   1.040       .  S
N348        H352   1.040       .  S
C353        C358   1.399       .  A
C353        C846   1.393       .  A
C353        H360   1.085       .  S
C354        C355   1.410       .  A
C354        C845   1.393   1_545  A
C355        C848   1.405   1_545  A
C355        N362   1.438       .  S
C356        C357   1.417       .  A
C356        C847   1.403       .  A
C356        H361   1.083       .  S
C357        C358   1.432       .  A
C358        N359   1.433       .  S
N359        H363   1.046       .  S
N359        H364   1.046       .  S
N362        H365   1.043       .  S
N362        H366   1.045       .  S
C367        C368   1.416       .  A
C367        C372   1.400       .  A
C367        H374   1.080       .  S
C368        C369   1.422       .  A
C369        C370   1.398       .  A
C369        N376   1.432       .  S
C370        C371   1.403       .  A
C370        H375   1.084       .  S
C371        C372   1.407       .  A
C372        N373   1.433       .  S
N373        H377   1.046       .  S
N373        H378   1.046       .  S
N376        H379   1.046       .  S
N376        H380   1.046       .  S
C381        C382   1.410       .  A
C381        C386   1.409       .  A
C381        H388   1.080       .  S
C382        C383   1.417       .  A
C383        C384   1.402       .  A
C383        N390   1.434       .  S
C384        C385   1.422       .  A
C384        H389   1.080       .  S
C385        C386   1.429       .  A
C386        N387   1.428       .  S
N387        H391   1.046       .  S
N387        H392   1.045       .  S
N390        H393   1.046       .  S
N390        H394   1.046       .  S
C395        C396   1.422       .  A
C395        C892   1.416       .  A
C395        H402   1.080       .  S
C396        C397   1.435       .  A
C397        C398   1.384       .  A
C397        N404   1.436       .  S
C398        C399   1.401       .  A
C398        H403   1.084       .  S
C399        C590   1.493   1_545  S
C399        C892   1.412       .  A
C400        C887   1.413       .  A
C400        C891   1.407       .  A
C400        N401   1.431       .  S
N401        H405   1.046       .  S
N401        H406   1.046       .  S
N404        H407   1.041       .  S
N404        H408   1.041       .  S
C409        C410   1.423       .  A
C409        C414   1.398       .  A
C409        H416   1.070       .  S
C410        C411   1.448       .  A
C411        C412   1.407       .  A
C411        N418   1.439       .  S
C412        C413   1.395       .  A
C412        H417   1.084       .  S
C413        C414   1.407       .  A
C414        N415   1.441       .  S
N415        H419   1.046       .  S
N415        H420   1.043       .  S
N418        H421   1.038       .  S
N418        H422   1.046       .  S
C423        C424   1.423       .  A
C423        C428   1.390       .  A
C423        H430   1.078       .  S
C424        C425   1.427       .  A
C425        C426   1.411       .  A
C425        N432   1.434       .  S
C426        C427   1.405       .  A
C426        H431   1.084       .  S
C427        C428   1.409       .  A
C428        N429   1.434       .  S
N429        H433   1.045       .  S
N429        H434   1.046       .  S
N432        H435   1.046       .  S
N432        H436   1.046       .  S
C437        C438   1.413       .  A
C437        C442   1.410       .  A
C437        H444   1.083       .  S
C438        C439   1.428       .  A
C439        C440   1.394       .  A
C439        N446   1.434       .  S
C440        C441   1.406       .  A
C440        H445   1.078       .  S
C441        C442   1.421       .  A
C442        N443   1.432       .  S
N443        H447   1.045       .  S
N443        H448   1.046       .  S
N446        H449   1.046       .  S
N446        H450   1.046       .  S
C451        C452   1.419   1_455  A
C451        C456   1.397       .  A
C451        H458   1.081       .  S
C452        C453   1.424       .  A
C453        C454   1.409   1_655  A
C453        N460   1.430       .  S
C454        C455   1.400       .  A
C454        H459   1.084       .  S
C455        C456   1.406       .  A
C456        N457   1.433       .  S
N457        H461   1.045       .  S
N457        H462   1.046       .  S
N460        H463   1.045       .  S
N460        H464   1.046       .  S
C465        C466   1.418   1_655  A
C465        C962   1.412   1_655  A
C465        H472   1.077       .  S
C466        C467   1.426       .  A
C467        C468   1.393       .  A
C467        N474   1.434       .  S
C468        C961   1.399       .  A
C468        H473   1.084       .  S
C469        C470   1.413       .  A
C469        C960   1.401       .  A
C470        C957   1.411   1_455  A
C470        N471   1.438   1_565  S
N471        H475   1.046   1_455  S
N471        H476   1.045       .  S
N474        H477   1.046       .  S
N474        H478   1.046       .  S
C479        C480   1.416       .  A
C479        C484   1.406       .  A
C479        H486   1.076       .  S
C480        C481   1.426       .  A
C481        C482   1.399       .  A
C481        N488   1.433       .  S
C482        C483   1.398   1_554  A
C482        H487   1.084       .  S
C483        C484   1.409   1_556  A
C484        N485   1.439   1_554  S
N485        H489   1.046       .  S
N485        H490   1.046       .  S
N488        H491   1.046       .  S
N488        H492   1.046       .  S
C493        C930   1.567       .  S
C493        C944   1.570   1_655  S
C493        C958   1.574   1_655  S
C493        C972   1.561       .  S
C494        C877   1.587       .  S
C494        C888   1.569       .  S
C494        C902   1.584       .  S
C494        C916   1.588       .  S
O495        C511   1.274       .  A
O495       Zn501   2.033       .  S
C496        O512   1.273       .  A
C496        O509   1.275       .  A
C496        C863   1.486       .  S
O497        C510   1.279       .  A
O497       Cd504   2.104       .  S
O498        C516   1.278       .  A
O498       Cd507   2.086       .  S
O499        C513   1.271       .  A
O499       Cd503   2.044       .  S
O500        C511   1.272       .  A
O500       Cd503   2.061       .  S
Zn501       O512   1.996       .  S
Zn501       O514   2.004       .  S
Zn501       O506   1.937       .  S
O502        C513   1.276       .  A
O502       Cd507   2.091       .  S
Cd503       O505   2.038       .  S
Cd503       O506   1.978       .  S
Cd504       O508   2.115       .  S
Cd504       O517   2.081       .  S
Cd504       O506   2.023       .  S
O505        C515   1.270       .  A
O506       Cd507   2.012       .  S
Cd507       O509   2.073       .  S
O508        C515   1.281       .  A
C510        O514   1.275       .  A
C510        C818   1.484       .  S
C511        C919   1.485       .  S
C513        C846   1.468       .  S
C515        C804   1.497       .  S
C516        O517   1.278       .  A
C516        C835   1.485       .  S
C518        C779   1.576       .  S
C518        C790   1.578       .  S
C518        C832   1.575       .  S
C518        C874   1.566       .  S
O519        C535   1.273       .  A
O519       Zn525   2.017       .  S
C520        O536   1.271       .  A
C520        O533   1.277       .  A
C520        C793   1.475       .  S
O521        C534   1.273       .  A
O521       Cd528   2.076       .  S
O522        C540   1.278       .  A
O522       Cd531   2.085       .  S
O523        C537   1.275       .  A
O523       Cd527   2.057       .  S
O524        C535   1.271       .  A
O524       Cd527   2.045       .  S
Zn525       O536   1.998       .  S
Zn525       O538   1.966       .  S
Zn525       O530   1.934       .  S
O526        C537   1.279       .  A
O526       Cd531   2.100       .  S
Cd527       O529   2.054       .  S
Cd527       O530   1.978       .  S
Cd528       O532   2.082       .  S
Cd528       O541   2.064       .  S
Cd528       O530   2.015       .  S
O529        C539   1.273       .  A
O530       Cd531   2.007       .  S
Cd531       O533   2.093       .  S
O532        C539   1.274       .  A
C534        O538   1.268       .  A
C534        C748   1.462       .  S
C535        C975   1.478       .  S
C537        C776   1.496       .  S
C539        C734   1.472   1_655  S
C540        O541   1.276       .  A
C540        C762   1.475       .  S
C542        C765   1.560       .  S
C542        C849   1.573       .  S
C542        C860   1.566       .  S
C542        C933   1.568       .  S
C543        C706   1.568       .  S
C543        C720   1.572       .  S
C543        C807   1.572       .  S
C543        C821   1.582       .  S
C544        C681   1.566       .  S
C544        C692   1.575       .  S
C544        C737   1.562       .  S
C544        C751   1.564       .  S
O545        C561   1.273   1_554  A
O545       Zn551   2.024       .  S
C546        O562   1.275       .  A
C546        O559   1.276       .  A
C546        C667   1.484       .  S
O547        C560   1.275       .  A
O547       Cd554   2.082       .  S
O548        C566   1.279       .  A
O548       Cd557   2.091       .  S
O549        C563   1.273       .  A
O549       Cd553   2.056       .  S
O550        C561   1.273   1_554  A
O550       Cd553   2.078       .  S
Zn551       O562   2.013       .  S
Zn551       O564   1.995       .  S
Zn551       O556   1.932       .  S
O552        C563   1.275       .  A
O552       Cd557   2.079       .  S
Cd553       O555   2.064       .  S
Cd553       O556   1.996       .  S
Cd554       O558   2.081       .  S
Cd554       O567   2.084       .  S
Cd554       O556   2.019       .  S
O555        C565   1.275       .  A
O556       Cd557   2.014       .  S
Cd557       O559   2.093       .  S
O558        C565   1.275       .  A
C560        O564   1.273       .  A
C560        C961   1.489       .  S
C561        C695   1.474       .  S
C563        C650   1.466       .  S
C565        C947   1.472       .  S
C566        O567   1.277       .  A
C566        C636   1.499       .  S
C568        C608   1.577       .  S
C568        C622   1.571       .  S
C568        C639   1.576       .  S
C568        C678   1.572       .  S
O569        C585   1.274       .  A
O569       Zn575   2.009       .  S
C570        O586   1.274       .  A
C570        O583   1.268       .  A
C570        C723   1.480       .  S
O571        C584   1.277       .  A
O571       Cd578   2.087       .  S
O572        C590   1.269       .  A
O572       Cd581   2.017       .  S
O573        C587   1.279       .  A
O573       Cd577   2.110       .  S
O574        C585   1.277       .  A
O574       Cd577   2.090       .  S
Zn575       O586   2.035       .  S
Zn575       O588   2.020       .  S
Zn575       O580   1.950       .  S
O576        C587   1.268       .  A
O576       Cd581   2.037       .  S
Cd577       O579   2.087       .  S
Cd577       O580   2.009       .  S
Cd578       O582   2.084       .  S
Cd578       O591   2.113       .  S
Cd578       O580   2.028       .  S
O579        C589   1.279       .  A
O580       Cd581   1.970       .  S
Cd581       O583   2.033       .  S
O582        C589   1.278       .  A
C584        O588   1.276       .  A
C584        C905   1.475       .  S
C585        C611   1.473       .  S
C589        C594   1.495       .  S
C590        O591   1.277       .  A
C592        C597   1.570       .  S
C592        C653   1.562       .  S
C592        C664   1.581       .  S
C592        C709   1.581       .  S
C593        C594   1.406       .  A
C593        C598   1.411       .  A
C593        H600   1.084       .  S
C594        C595   1.408       .  A
C595        C596   1.400       .  A
C595        N602   1.433       .  S
C596        C597   1.415   1_556  A
C596        H601   1.079       .  S
C597        C598   1.427   1_554  A
C598        N599   1.431   1_556  S
N599        H603   1.045       .  S
N599        H604   1.046       .  S
N602        H605   1.045       .  S
N602        H606   1.046       .  S
C607        C608   1.420       .  A
C607        C612   1.400       .  A
C607        H614   1.079       .  S
C608        C609   1.440       .  A
C609        C610   1.401       .  A
C609        N616   1.433       .  S
C610        C611   1.393       .  A
C610        H615   1.084       .  S
C611        C612   1.406       .  A
C612        N613   1.433       .  S
N613        H617   1.045       .  S
N613        H618   1.046       .  S
N616        H619   1.041       .  S
N616        H620   1.043       .  S
C621        C622   1.416       .  A
C621        C626   1.397       .  A
C621        H628   1.079       .  S
C622        C623   1.429       .  A
C623        C624   1.404       .  A
C623        N630   1.433       .  S
C624        C625   1.396       .  A
C625        C626   1.412       .  A
C626        N627   1.434       .  S
N627        H631   1.045       .  S
N627        H632   1.045       .  S
N630        H633   1.046       .  S
N630        H634   1.045       .  S
C635        C636   1.403       .  A
C635        C640   1.406       .  A
C635        H642   1.083       .  S
C636        C637   1.412       .  A
C637        C638   1.407       .  A
C637        N644   1.432       .  S
C638        C639   1.417       .  A
C638        H643   1.079       .  S
C639        C640   1.427       .  A
C640        N641   1.433       .  S
N641        H645   1.046       .  S
N641        H646   1.046       .  S
N644        H647   1.046       .  S
N644        H648   1.046       .  S
C649        C650   1.397       .  A
C649        C654   1.403       .  A
C649        H656   1.084       .  S
C650        C651   1.410       .  A
C651        C652   1.398       .  A
C651        N658   1.440       .  S
C652        C653   1.417       .  A
C652        H657   1.079       .  S
C653        C654   1.426       .  A
C654        N655   1.433       .  S
N655        H659   1.046       .  S
N655        H660   1.045       .  S
N658        H661   1.043       .  S
N658        H662   1.046       .  S
C663        C664   1.419       .  A
C663        H670   1.083       .  S
C664        C665   1.434       .  A
C665        C666   1.401       .  A
C665        N672   1.433       .  S
C666        H671   1.085       .  S
C667        C668   1.409       .  A
C668        N669   1.437       .  S
N669        H673   1.046       .  S
N669        H674   1.045       .  S
N672        H675   1.046       .  S
N672        H676   1.046       .  S
C677        C678   1.418       .  A
C677        C682   1.396       .  A
C677        H684   1.076       .  S
C678        C679   1.430       .  A
C679        C680   1.401       .  A
C679        N686   1.435       .  S
C680        C681   1.414       .  A
C680        H685   1.078       .  S
C681        C682   1.414       .  A
C682        N683   1.433       .  S
N683        H687   1.046       .  S
N683        H688   1.046       .  S
N686        H689   1.040       .  S
N686        H690   1.043       .  S
C691        C692   1.421       .  A
C691        C696   1.403       .  A
C691        H698   1.079       .  S
C692        C693   1.427       .  A
C693        C694   1.402       .  A
C693        N700   1.431       .  S
C694        C695   1.394       .  A
C694        H699   1.084       .  S
C695        C696   1.406       .  A
C696        N697   1.432       .  S
N697        H701   1.045       .  S
N697        H702   1.045       .  S
N700        H703   1.046       .  S
N700        H704   1.046       .  S
C705        C706   1.408       .  A
C705        C710   1.403       .  A
C705        H712   1.076       .  S
C706        C707   1.423       .  A
C707        C708   1.402       .  A
C707        N714   1.433       .  S
C708        C709   1.413       .  A
C708        H713   1.075       .  S
C709        C710   1.437       .  A
C710        N711   1.433       .  S
N711        H715   1.041       .  S
N711        H716   1.042       .  S
N714        H717   1.045       .  S
N714        H718   1.046       .  S
C719        C720   1.417       .  A
C719        C724   1.393       .  A
C719        H726   1.078       .  S
C720        C721   1.436       .  A
C721        C722   1.404       .  A
C721        N728   1.434       .  S
C722        C723   1.401       .  A
C722        H727   1.084       .  S
C723        C724   1.406       .  A
C724        N725   1.434       .  S
N725        H729   1.046       .  S
N725        H730   1.046       .  S
N728        H731   1.042       .  S
N728        H732   1.043       .  S
C733        C738   1.411       .  A
C733        H740   1.084   1_455  S
C734        C735   1.408   1_565  A
C735        N742   1.434   1_545  S
C736        C737   1.412       .  A
C736        H741   1.080       .  S
C737        C738   1.426       .  A
C738        N739   1.433       .  S
N739        H743   1.045       .  S
N739        H744   1.045       .  S
N742        H745   1.046       .  S
N742        H746   1.044       .  S
C747        C748   1.393       .  A
C747        C752   1.397   1_655  A
C747        H754   1.085       .  S
C748        C749   1.403   1_655  A
C749        C750   1.397       .  A
C749        N756   1.433       .  S
C750        C751   1.420       .  A
C750        H755   1.084       .  S
C751        C752   1.432       .  A
C752        N753   1.432   1_455  S
N753        H757   1.046       .  S
N753        H758   1.046       .  S
N756        H759   1.046       .  S
N756        H760   1.045       .  S
C761        C762   1.398       .  A
C761        C766   1.402       .  A
C761        H768   1.084       .  S
C762        C763   1.402       .  A
C763        C764   1.403       .  A
C763        N770   1.433       .  S
C764        C765   1.419       .  A
C764        H769   1.078       .  S
C765        C766   1.426       .  A
C766        N767   1.433       .  S
N767        H771   1.046       .  S
N767        H772   1.045       .  S
N770        H773   1.046       .  S
N770        H774   1.046       .  S
C775        C780   1.402       .  A
C775        H782   1.083       .  S
C777        C778   1.408       .  A
C778        C779   1.418       .  A
C778        H783   1.080       .  S
C779        C780   1.424       .  A
C780        N781   1.431       .  S
N781        H785   1.046       .  S
N781        H786   1.046       .  S
N784        H787   1.046       .  S
N784        H788   1.046       .  S
C789        C790   1.420       .  A
C789        C794   1.401       .  A
C789        H796   1.080       .  S
C790        C791   1.433       .  A
C791        C792   1.402       .  A
C791        N798   1.429       .  S
C792        C793   1.391       .  A
C792        H797   1.084       .  S
C793        C794   1.409       .  A
C794        N795   1.433       .  S
N795        H799   1.045       .  S
N795        H800   1.045       .  S
N798        H801   1.046       .  S
N798        H802   1.046       .  S
C803        C804   1.405       .  A
C803        H810   1.083       .  S
C805        C806   1.394       .  A
C805        N812   1.434       .  S
C806        C807   1.413       .  A
C806        H811   1.080       .  S
C807        C808   1.428       .  A
C808        N809   1.431       .  S
N809        H814   1.046       .  S
N812        H815   1.046       .  S
N812        H816   1.046       .  S
C817        C818   1.393       .  A
C817        C822   1.397       .  A
C817        H824   1.085       .  S
C818        C819   1.415       .  A
C819        C820   1.411       .  A
C819        N826   1.438       .  S
C820        C821   1.420       .  A
C820        H825   1.084       .  S
C821        C822   1.437       .  A
C822        N823   1.432       .  S
N823        H827   1.046       .  S
N823        H828   1.046       .  S
N826        H829   1.042       .  S
N826        H830   1.046       .  S
C831        C832   1.421       .  A
C831        C836   1.404   1_556  A
C831        H838   1.079       .  S
C832        C833   1.437       .  A
C833        C834   1.401       .  A
C833        N840   1.433       .  S
C834        C835   1.398   1_556  A
C834        H839   1.084   1_556  S
C835        C836   1.403       .  A
C836        N837   1.433       .  S
N837        H841   1.046       .  S
N837        H842   1.046       .  S
N840        H843   1.040       .  S
N840        H844   1.040       .  S
C845        C850   1.399       .  A
C845        H852   1.085       .  S
C846        C847   1.406       .  A
C847        N854   1.432       .  S
C848        C849   1.417       .  A
C848        H853   1.078       .  S
C849        C850   1.433       .  A
C850        N851   1.433       .  S
N851        H855   1.046       .  S
N851        H856   1.046       .  S
N854        H857   1.046       .  S
N854        H858   1.045       .  S
C859        C860   1.417       .  A
C859        C864   1.401       .  A
C859        H866   1.080       .  S
C860        C861   1.423       .  A
C861        C862   1.399       .  A
C861        N868   1.432       .  S
C862        C863   1.403       .  A
C862        H867   1.083       .  S
C863        C864   1.409       .  A
C864        N865   1.433       .  S
N865        H869   1.046       .  S
N865        H870   1.046       .  S
N868        H871   1.046       .  S
N868        H872   1.046       .  S
C873        C874   1.411       .  A
C873        C878   1.408       .  A
C873        H880   1.080       .  S
C874        C875   1.417       .  A
C875        C876   1.402       .  A
C875        N882   1.434       .  S
C876        C877   1.421       .  A
C876        H881   1.080       .  S
C877        C878   1.429       .  A
C878        N879   1.428       .  S
N879        H883   1.046       .  S
N879        H884   1.045       .  S
N882        H885   1.046       .  S
N882        H886   1.046       .  S
C887        C888   1.423       .  A
C887        H894   1.080       .  S
C888        C889   1.435       .  A
C889        C890   1.385       .  A
C889        N896   1.436       .  S
C890        C891   1.401       .  A
C890        H895   1.084       .  S
C892        N893   1.437   1_545  S
N893        H897   1.045       .  S
N893        H898   1.046       .  S
N896        H899   1.041       .  S
N896        H900   1.041       .  S
C901        C902   1.423       .  A
C901        C906   1.397       .  A
C901        H908   1.070       .  S
C902        C903   1.448       .  A
C903        C904   1.406       .  A
C903        N910   1.439       .  S
C904        C905   1.395       .  A
C904        H909   1.084       .  S
C905        C906   1.406       .  A
C906        N907   1.441       .  S
N907        H911   1.046       .  S
N907        H912   1.043       .  S
N910        H913   1.038       .  S
N910        H914   1.045       .  S
C915        C916   1.423       .  A
C915        C920   1.393       .  A
C915        H922   1.078       .  S
C916        C917   1.427       .  A
C917        C918   1.410       .  A
C917        N924   1.434       .  S
C918        C919   1.404       .  A
C918        H923   1.084       .  S
C919        C920   1.410       .  A
C920        N921   1.434       .  S
N921        H925   1.045       .  S
N921        H926   1.045       .  S
N924        H927   1.046       .  S
N924        H928   1.046       .  S
C929        C930   1.411       .  A
C929        C934   1.406       .  A
C929        H936   1.084       .  S
C930        C931   1.426       .  A
C931        C932   1.392       .  A
C931        N938   1.434       .  S
C932        C933   1.407       .  A
C932        H937   1.078       .  S
C933        C934   1.433       .  A
C934        N935   1.435       .  S
N935        H939   1.042       .  S
N935        H940   1.040       .  S
N938        H941   1.046       .  S
N938        H942   1.046       .  S
C943        C944   1.418       .  A
C943        C948   1.394       .  A
C943        H950   1.080       .  S
C944        C945   1.424   1_455  A
C945        C946   1.409   1_655  A
C945        N952   1.431       .  S
C946        C947   1.400       .  A
C946        H951   1.084       .  S
C947        C948   1.405       .  A
C948        N949   1.433       .  S
N949        H953   1.045       .  S
N949        H954   1.046       .  S
N952        H955   1.045       .  S
N952        H956   1.046       .  S
C957        C958   1.418   1_655  A
C957        H964   1.077       .  S
C958        C959   1.426       .  A
C959        C960   1.396       .  A
C959        N966   1.434       .  S
C960        H965   1.084       .  S
C961        C962   1.413       .  A
C962        N963   1.438       .  S
N963        H967   1.046   1_455  S
N963        H968   1.046       .  S
N966        H969   1.046       .  S
N966        H970   1.046       .  S
C971        C972   1.417       .  A
C971        C976   1.406       .  A
C971        H978   1.076       .  S
C972        C973   1.425       .  A
C973        C974   1.396       .  A
C973        N980   1.433       .  S
C974        C975   1.399   1_554  A
C974        H979   1.084       .  S
C975        C976   1.409   1_556  A
C976        N977   1.439   1_554  S
N977        H981   1.046       .  S
N977        H982   1.046       .  S
N980        H983   1.046       .  S
N980        H984   1.046       .  S
