geometry optimzed in LAMMPS
_audit_creation_date              2020-11-30 
_audit_creation_method            'lammps2cif' 
_symmetry_space_group_name_H-M    'P1' 
_symmetry_Int_Tables_number       1 
_symmetry_cell_setting            triclinic 
loop_ 
_symmetry_equiv_pos_as_xyz 
  x,y,z 
_cell_length_a                    32.73683437 
_cell_length_b                    50.398418977349934 
_cell_length_c                    31.365645204032756 
_cell_angle_alpha                 89.94086119363443 
_cell_angle_beta                  89.99886757079713 
_cell_angle_gamma                 89.99308218158248 
loop_ 
_atom_site_label 
_atom_site_type_symbol 
_atom_site_fract_x 
_atom_site_fract_y 
_atom_site_fract_z 
_atom_site_charge 
N1          N  0.56452792  0.24934683  0.02502225    -0.35300
N2          N  0.50176837  0.20809868  0.02096570    -0.55800
N3          N  0.43936003  0.24923871  0.01819156    -0.35300
N4          N  0.50215218  0.29046434  0.01784286    -0.55800
C5          C  0.58794431  0.22755946  0.01846201     0.28300
C6          C  0.58817402  0.27085421  0.01705044     0.28300
C7          C  0.41599075  0.22747840  0.01115238     0.28300
C8          C  0.41613222  0.27083517  0.00958462     0.28300
C9          C  0.53469405  0.19253779  0.02829693     0.36900
C10         C  0.46842510  0.19246221  0.02532338     0.36900
C11         C  0.53512411  0.30629002  0.02334297     0.36900
C12         C  0.46881672  0.30625566  0.02042275     0.36900
C13         C  0.62701573  0.23536537  0.00678128    -0.20600
C14         C  0.62716873  0.26260467  0.00592403    -0.20600
C15         C  0.37733461  0.23539275  0.99822773    -0.20600
C16         C  0.37740981  0.26266439  0.99727583    -0.20600
C17         C  0.52225892  0.16678317  0.03681855    -0.21600
C18         C  0.48027948  0.16673809  0.03496920    -0.21600
C19         C  0.52272088  0.33236976  0.02870544    -0.21600
C20         C  0.48072940  0.33234881  0.02689359    -0.21600
C21         C  0.57582841  0.20082966  0.02457037    -0.17000
C22         C  0.57628284  0.29776676  0.02107800    -0.17000
C23         C  0.42791704  0.29772363  0.01489356    -0.17000
C24         C  0.42759843  0.20073742  0.01848433    -0.17000
H25         H  0.65287507  0.22276170  0.99965136     0.15900
H26         H  0.65314695  0.27491642  0.99794414     0.15900
H27         H  0.35151113  0.22284822  0.99068004     0.15900
H28         H  0.35165128  0.27504924  0.98881951     0.15900
H29         H  0.54144123  0.14974620  0.04323523     0.14200
H30         H  0.46075917  0.14965617  0.03971182     0.14200
H31         H  0.54192330  0.34964064  0.03303270     0.14200
H32         H  0.46123890  0.34961935  0.02954150     0.14200
H33         H  0.53562294  0.24956184  0.03854722     0.27500
H34         H  0.46776945  0.24943606  0.03269594     0.27500
N35         N  0.06106646  0.99719066  0.98143269    -0.35300
N36         N  0.00103519  0.45798547  0.97904801    -0.55800
N37         N  0.93597090  0.99864718  0.97530452    -0.35300
N38         N  0.00003205  0.03905494  0.98327276    -0.55800
C39         C  0.08733914  0.47683225  0.98610546     0.28300
C40         C  0.08508049  0.01840959  0.99024724     0.28300
C41         C  0.91508225  0.47813514  0.98188040     0.28300
C42         C  0.91331859  0.02038984  0.98449192     0.28300
C43         C  0.03399845  0.44198295  0.97508652     0.36900
C44         C  0.96774046  0.44253435  0.97330108     0.36900
C45         C  0.03375237  0.05437554  0.97898864     0.36900
C46         C  0.96742209  0.05513455  0.97738746     0.36900
C47         C  0.12650373  0.48460667  0.99744792    -0.20600
C48         C  0.12325326  0.00965831  0.00324332    -0.20600
C49         C  0.87607771  0.48632051  0.99312914    -0.20600
C50         C  0.87405271  0.01263005  0.99554901    -0.20600
C51         C  0.02155385  0.41614044  0.96740557    -0.21600
C52         C  0.97957787  0.41648486  0.96630567    -0.21600
C53         C  0.02246890  0.08040382  0.97086254    -0.21600
C54         C  0.98043905  0.08089145  0.96992204    -0.21600
C55         C  0.07506920  0.45008178  0.98039466    -0.17000
C56         C  0.07444141  0.04545253  0.98457540    -0.17000
C57         C  0.92611248  0.04714650  0.98090764    -0.17000
C58         C  0.92680160  0.45125780  0.97676815    -0.17000
H59         H  0.15236936  0.47198602  0.00450312     0.15900
H60         H  0.14934864  0.02165203  0.01201379     0.15900
H61         H  0.85002813  0.47396350  0.00065235     0.15900
H62         H  0.84865712  0.02523526  0.00427931     0.15900
H63         H  0.04068750  0.39880325  0.96341502     0.14200
H64         H  0.96001143  0.39945721  0.96132352     0.14200
H65         H  0.04241180  0.09731535  0.96647264     0.14200
H66         H  0.96161757  0.09823959  0.96459691     0.14200
H67         H  0.03289123  0.99778561  0.96641568     0.27500
H68         H  0.96481465  0.99866340  0.96162362     0.27500
O69         O  0.24813432  0.10606658  0.92636036    -0.87000
C70         C  0.28495914  0.17816102  0.97258438     0.89000
Mg71       Mg  0.18846717  0.08920647  0.93691108     1.58100
O72         O  0.32862393  0.12337918  0.02490712    -0.86700
O73         O  0.31280285  0.09599201  0.93587295    -0.74100
C74         C  0.16092104  0.10679530  0.14450095     0.94100
O75         O  0.19382907  0.15777031  0.94431967    -0.73900
O76         O  0.13953965  0.10398707  0.11095533    -0.81400
Mg77       Mg  0.25017890  0.14661577  0.90475730     1.58000
C78         C  0.32993606  0.12012158  0.15520024     0.94000
O79         O  0.30392223  0.13866068  0.85980091    -0.79700
H80         H  0.36022683  0.08947919  0.02231749    -0.05000
C81         C  0.22696559  0.15532205  0.07946314     0.88900
O82         O  0.21331449  0.06354007  0.99152584    -0.74200
O83         O  0.29021461  0.15613634  0.95625371    -0.86900
O84         O  0.34231310  0.13514949  0.12523383    -0.79700
C85         C  0.39471619  0.18046418  0.01901249     0.94100
C86         C  0.34271440  0.14004075  0.85942839     0.94000
Mg87       Mg  0.25333593  0.09898588  0.09909195     1.58000
O88         O  0.19973788  0.10781799  0.14383324    -0.79700
O89         O  0.30957796  0.08752895  0.05944075    -0.73900
O90         O  0.38432034  0.16929604  0.98410949    -0.79700
O91         O  0.20737297  0.13817564  0.85025731    -0.81500
O92         O  0.11836985  0.07639134  0.01954740    -0.79800
C93         C  0.33429438  0.09997538  0.03538835     0.88400
O94         O  0.21309138  0.08920212  0.04769897    -0.86900
O95         O  0.25558670  0.13934610  0.07688959    -0.87000
O96         O  0.19097711  0.14950756  0.06731945    -0.74100
Mg97       Mg  0.34550849  0.13331263  0.96128276     1.58000
O98         O  0.37694749  0.17544452  0.05422911    -0.81500
H99         H  0.27096500  0.07046991  0.91143037    -0.05200
O100        O  0.17491758  0.12186848  0.97868797    -0.86700
H101        H  0.14304676  0.15565327  0.98119349    -0.05000
H102        H  0.22927356  0.05098915  0.05071125    -0.05200
C103        C  0.16910079  0.14524345  0.96821085     0.88400
C104        C  0.27684800  0.09016352  0.92360579     0.89000
C105        C  0.21853799  0.06723987  0.03117016     0.89000
H106        H  0.23296203  0.17506438  0.09137069    -0.05200
O107        O  0.29032863  0.18194575  0.01216183    -0.74200
Mg108      Mg  0.15792571  0.11220658  0.04240191     1.58000
H109        H  0.27429846  0.19438484  0.95294245    -0.05200
C110        C  0.17379008  0.12566285  0.84831552     0.94000
O111        O  0.12652280  0.06995946  0.94952978    -0.81400
C112        C  0.10810204  0.06525410  0.98453054     0.94000
O113        O  0.36389642  0.14217180  0.89319004    -0.81400
Mg114      Mg  0.31515546  0.15616462  0.06655512     1.58200
O115        O  0.16138957  0.11036560  0.87797598    -0.79700
O116        O  0.29630246  0.10764003  0.15357600    -0.81400
O117        O  0.74841541  0.13946872  0.07928690    -0.87000
C118        C  0.78542176  0.06836350  0.03084367     0.89000
Mg119      Mg  0.68861155  0.15588119  0.07033141     1.58100
O120        O  0.82617618  0.12361942  0.97754954    -0.86700
O121        O  0.81224249  0.15073621  0.06760895    -0.74100
C122        C  0.65498041  0.14141282  0.86329473     0.94100
O123        O  0.69502671  0.08741978  0.06135488    -0.73900
O124        O  0.63512038  0.14326128  0.89795745    -0.81400
Mg125      Mg  0.75185239  0.09885324  0.10003897     1.58000
C126        C  0.82345479  0.12633637  0.84578066     0.94000
O127        O  0.80615230  0.10736083  0.14384428    -0.79700
H128        H  0.85845316  0.15727985  0.97822394    -0.05000
C129        C  0.72349989  0.09120604  0.92450747     0.88900
O130        O  0.71237186  0.18195931  0.01557030    -0.74200
O131        O  0.79098756  0.09024614  0.04756442    -0.86900
O132        O  0.83708766  0.11169361  0.87570230    -0.79700
C133        C  0.89369826  0.06763299  0.98131250     0.94100
C134        C  0.84499332  0.10719279  0.14363124     0.94000
Mg135      Mg  0.74917757  0.14773783  0.90506680     1.58000
O136        O  0.69375716  0.13993031  0.86211005    -0.79700
O137        O  0.80692477  0.15910320  0.94240683    -0.73900
O138        O  0.88444921  0.07881216  0.01655548    -0.79700
O139        O  0.70998265  0.10636072  0.15554120    -0.81500
O140        O  0.61827686  0.16946603  0.98965231    -0.79800
C141        C  0.83199505  0.14683363  0.96625442     0.88400
O142        O  0.71101896  0.15701894  0.95849727    -0.86900
O143        O  0.75201904  0.10726368  0.92680162    -0.87000
O144        O  0.68784496  0.09673172  0.93796781    -0.74100
Mg145      Mg  0.84526573  0.11401299  0.04103135     1.58000
O146        O  0.87443432  0.07222211  0.94679878    -0.81500
H147        H  0.77027213  0.17532241  0.09412137    -0.05200
O148        O  0.67494604  0.12345711  0.02804983    -0.86700
H149        H  0.64364656  0.08945030  0.02536433    -0.05000
H150        H  0.72756058  0.19519419  0.95653931    -0.05200
C151        C  0.66971690  0.09994866  0.03811766     0.88400
C152        C  0.77655880  0.15581627  0.08139645     0.89000
C153        C  0.71700315  0.17872775  0.97571134     0.89000
H154        H  0.72932200  0.07165839  0.91170871    -0.05200
O155        O  0.78922264  0.06498825  0.99097412    -0.74200
Mg156      Mg  0.65607046  0.13384922  0.96513931     1.58000
H157        H  0.77562726  0.05190278  0.05046598    -0.05200
C158        C  0.67625187  0.11861971  0.15843080     0.94000
O159        O  0.62645034  0.17511578  0.05975429    -0.81400
C160        C  0.60837880  0.18041593  0.02481666     0.94000
O161        O  0.86576335  0.10564159  0.10939655    -0.81400
Mg162      Mg  0.81207827  0.09087145  0.93588488     1.58200
O163        O  0.66300437  0.13405554  0.12935293    -0.79700
O164        O  0.78992664  0.13889692  0.84859730    -0.81400
O165        O  0.75448789  0.38900358  0.92151697    -0.87000
C166        C  0.71885001  0.31835819  0.97294629     0.89000
Mg167      Mg  0.81392769  0.40608001  0.93124859     1.58100
O168        O  0.67642949  0.37453993  0.02224123    -0.86700
O169        O  0.69019281  0.39975600  0.93074226    -0.74100
C170        C  0.84563586  0.39543553  0.13920572     0.94100
O171        O  0.80924354  0.33787839  0.94164462    -0.73900
O172        O  0.86588093  0.39596860  0.10467166    -0.81400
Mg173      Mg  0.75238146  0.34807813  0.90193118     1.58000
C174        C  0.67676378  0.38035571  0.15337050     0.94000
O175        O  0.69761407  0.35452993  0.85683787    -0.79700
H176        H  0.64453185  0.40828095  0.01847061    -0.05000
C177        C  0.77805643  0.34356645  0.07936510     0.88900
O178        O  0.78929389  0.43283624  0.98440262    -0.74200
O179        O  0.71294465  0.33973825  0.95461919    -0.86900
O180        O  0.66358912  0.36503975  0.12415827    -0.79700
C181        C  0.60921234  0.31796504  0.02057906     0.94100
C182        C  0.65874823  0.35328298  0.85746582     0.94000
Mg183      Mg  0.75207195  0.40051476  0.09510413     1.58000
O184        O  0.80680476  0.39407149  0.14004380    -0.79700
O185        O  0.69518588  0.41082125  0.05549614    -0.73900
O186        O  0.61930995  0.32839583  0.98503598    -0.79700
O187        O  0.79479676  0.35584424  0.84648944    -0.81500
O188        O  0.88413470  0.42040035  0.01239518    -0.79800
C189        C  0.67059364  0.39804478  0.03182069     0.88400
O190        O  0.79114586  0.40881931  0.04248319    -0.86900
O191        O  0.74962255  0.35957500  0.07563443    -0.87000
O192        O  0.81388427  0.34877779  0.06614039    -0.74100
Mg193      Mg  0.65810187  0.36323530  0.95931383     1.58000
O194        O  0.62761644  0.32340776  0.05528166    -0.81500
H195        H  0.73207417  0.42419160  0.90362375    -0.05200
O196        O  0.82759980  0.37424021  0.97489408    -0.86700
H197        H  0.85993624  0.34067464  0.97856703    -0.05000
H198        H  0.77434884  0.44695354  0.04289520    -0.05200
C199        C  0.83373309  0.35077903  0.96525533     0.88400
C200        C  0.72602617  0.40496151  0.91756322     0.89000
C201        C  0.78502434  0.43024426  0.02439676     0.89000
H202        H  0.77199368  0.32429964  0.09316741    -0.05200
O203        O  0.71420462  0.31588015  0.01293019    -0.74200
Mg204      Mg  0.84591579  0.38539912  0.03769825     1.58000
H205        H  0.72952837  0.30155690  0.95466794    -0.05200
C206        C  0.82826546  0.36851306  0.84416568     0.94000
O207        O  0.87564386  0.42576711  0.94226423    -0.81400
C208        C  0.89393671  0.43112235  0.97703067     0.94000
O209        O  0.63835757  0.35265322  0.89196394    -0.81400
Mg210      Mg  0.68983905  0.34276929  0.06611861     1.58200
O211        O  0.84069764  0.38398683  0.87349169    -0.79700
O212        O  0.71031430  0.39282979  0.15057172    -0.81400
O213        O  0.25689742  0.35913066  0.07489911    -0.87000
C214        C  0.21788483  0.42902330  0.02378256     0.89000
Mg215      Mg  0.31655907  0.34290945  0.06334348     1.58100
O216        O  0.17415509  0.37264414  0.97636835    -0.86700
O217        O  0.19252577  0.34776684  0.06695163    -0.74100
C218        C  0.33924041  0.35377171  0.85336603     0.94100
O219        O  0.30924483  0.41083081  0.05149617    -0.73900
O220        O  0.36102320  0.35259523  0.88687864    -0.81400
Mg221      Mg  0.25433248  0.40011847  0.09370149     1.58000
C222        C  0.16965007  0.36632274  0.84574327     0.94000
O223        O  0.20163666  0.39253559  0.14063678    -0.79700
H224        H  0.14284462  0.33875906  0.98186704    -0.05000
C225        C  0.27323150  0.40394520  0.91577165     0.88900
O226        O  0.29055698  0.31552092  0.01148387    -0.74200
O227        O  0.21302904  0.40762574  0.04236528    -0.86900
O228        O  0.15762672  0.38182578  0.87522285    -0.79700
C229        C  0.10753999  0.42956518  0.98022947     0.94100
C230        C  0.16276900  0.39320736  0.14155501     0.94000
Mg231      Mg  0.24761868  0.34683062  0.90141030     1.58000
O232        O  0.30038023  0.35442013  0.85449496    -0.79700
O233        O  0.19240071  0.33616455  0.94326100    -0.73900
O234        O  0.11880516  0.41926088  0.01555468    -0.79700
O235        O  0.29911535  0.39377540  0.14774077    -0.81500
O236        O  0.38335559  0.32784297  0.97935777    -0.79800
C237        C  0.16833395  0.34902803  0.96742271     0.88400
O238        O  0.28893330  0.33903675  0.95276329    -0.86900
O239        O  0.24522476  0.38773642  0.92065899    -0.87000
O240        O  0.30960290  0.39906136  0.92766818    -0.74100
Mg241      Mg  0.15839734  0.38404863  0.03984877     1.58000
O242        O  0.12423985  0.42358876  0.94485542    -0.81500
H243        H  0.23563999  0.32358448  0.09253962    -0.05200
O244        O  0.32751019  0.37436359  0.01840753    -0.86700
H245        H  0.35849691  0.40833918  0.01245736    -0.05000
H246        H  0.27298318  0.30074925  0.95418944    -0.05200
C247        C  0.33320059  0.39801459  0.02716147     0.88400
C248        C  0.22882989  0.34286259  0.07916112     0.89000
C249        C  0.28412943  0.31773646  0.97170180     0.89000
H250        H  0.26632670  0.42313215  0.90211236    -0.05200
O251        O  0.21173331  0.43142743  0.98401907    -0.74200
Mg252      Mg  0.34351513  0.36281389  0.95500420     1.58000
H253        H  0.22893403  0.44591571  0.04159147    -0.05200
C254        C  0.33331361  0.38187958  0.14902904     0.94000
O255        O  0.37837410  0.32401803  0.05016304    -0.81400
C256        C  0.39499782  0.31791429  0.01480309     0.94000
O257        O  0.14107906  0.39419177  0.10796460    -0.81400
Mg258      Mg  0.18583498  0.40432643  0.93197416     1.58200
O259        O  0.34509642  0.36611677  0.11973239    -0.79700
O260        O  0.20335735  0.35389672  0.84740087    -0.81400
C261        C  0.02357311  0.13296040  0.45982453     0.03600
C262        C  0.98052604  0.13376085  0.45988501     0.03600
C263        C  0.95939650  0.13527354  0.49864762    -0.16900
C264        C  0.98078762  0.13581250  0.53733137     0.03600
C265        C  0.02382227  0.13534335  0.53721575     0.03600
C266        C  0.04498671  0.13396126  0.49846203    -0.16900
H267        H  0.07810596  0.13325284  0.49840415     0.05600
H268        H  0.92626393  0.13547522  0.49875086     0.05600
C269        C  0.98034055  0.39070208  0.45794571     0.03600
C270        C  0.02334283  0.38985970  0.45872694     0.03600
C271        C  0.04385347  0.38633458  0.49747640    -0.18100
C272        C  0.02176677  0.38332968  0.53540175     0.03600
C273        C  0.97875473  0.38397597  0.53462585     0.03600
C274        C  0.95822509  0.38778219  0.49590647    -0.16900
H275        H  0.92510480  0.38819329  0.49525307     0.05600
H276        H  0.07696390  0.38559299  0.49804550     0.05600
C277        C  0.52650505  0.37332179  0.46308779     0.03600
C278        C  0.48376361  0.37624582  0.46034051     0.03600
C279        C  0.46003192  0.37455523  0.49750610    -0.16900
C280        C  0.47864301  0.36993127  0.53714574     0.03600
C281        C  0.52134355  0.36671672  0.53963587     0.03600
C282        C  0.54503099  0.36847594  0.50258911    -0.16900
H283        H  0.57792774  0.36618456  0.50451897     0.05600
H284        H  0.42714512  0.37685755  0.49559838     0.05600
C285        C  0.52437690  0.12348052  0.46742051     0.03600
C286        C  0.48142240  0.12457903  0.46547170     0.03600
C287        C  0.45875314  0.12788512  0.50291546    -0.16900
C288        C  0.47863085  0.13008847  0.54224238     0.03600
C289        C  0.52160294  0.12927086  0.54417625     0.03600
C290        C  0.54427471  0.12597337  0.50672662    -0.16900
H291        H  0.57735934  0.12520398  0.50819381     0.05600
H292        H  0.42565883  0.12854154  0.50149062     0.05600
C293        C  0.39571086  0.38705912  0.26096787     0.18400
C294        C  0.43273761  0.40017076  0.26893604    -0.10800
C295        C  0.45027459  0.39923846  0.30974321    -0.11600
C296        C  0.43089315  0.38515310  0.34267689     0.19900
C297        C  0.39384062  0.37222783  0.33461389    -0.13600
C298        C  0.37632513  0.37320809  0.29400433    -0.11900
C299        C  0.44909563  0.38331862  0.38452984     0.00900
C300        C  0.46407049  0.38057804  0.41949791    -0.31900
C301        C  0.37733729  0.38724355  0.21912487     0.02300
C302        C  0.35880046  0.38556365  0.18592671    -0.33600
H303        H  0.44807718  0.41094564  0.24368285     0.13300
H304        H  0.47896306  0.40932484  0.31552759     0.13100
H305        H  0.37858334  0.36124071  0.35968804     0.13000
H306        H  0.34772866  0.36299033  0.28828278     0.12000
C307        C  0.42153894  0.36453223  0.65219280     0.18400
C308        C  0.38500571  0.37720208  0.66337272    -0.10800
C309        C  0.36946891  0.37461859  0.70472797    -0.11600
C310        C  0.39039618  0.35937070  0.73510087     0.19900
C311        C  0.42711073  0.34686525  0.72399871    -0.13600
C312        C  0.44267313  0.34947334  0.68265810    -0.11900
C313        C  0.37400376  0.35654862  0.77749515     0.00900
C314        C  0.35899522  0.35477107  0.81251580    -0.31900
C315        C  0.43768462  0.36704534  0.60968944     0.02300
C316        C  0.45407560  0.36862521  0.57534887    -0.33600
H317        H  0.36853786  0.38900431  0.64015678     0.13300
H318        H  0.34111344  0.38443832  0.71298901     0.13100
H319        H  0.44362316  0.33509297  0.74722067     0.13000
H320        H  0.47111110  0.33973072  0.67442606     0.12000
C321        C  0.07913098  0.39240506  0.34265909     0.18400
C322        C  0.05321615  0.39618548  0.30759982    -0.10800
C323        C  0.06914199  0.39605314  0.26622802    -0.11600
C324        C  0.11105084  0.39211317  0.25976717     0.19900
C325        C  0.13691141  0.38818610  0.29482563    -0.13600
C326        C  0.12098294  0.38833133  0.33619413    -0.11900
C327        C  0.12770904  0.39242072  0.21731381     0.00900
C328        C  0.14288586  0.39284573  0.18230191    -0.31900
C329        C  0.06254159  0.39228158  0.38510283     0.02300
C330        C  0.04644929  0.39158926  0.41963309    -0.33600
H331        H  0.02076975  0.39921482  0.31225283     0.13300
H332        H  0.04885736  0.39908191  0.23936471     0.13100
H333        H  0.16935979  0.38509567  0.29017796     0.13000
H334        H  0.14123989  0.38527063  0.36306859     0.12000
C335        C  0.07656115  0.37200515  0.65080046     0.18400
C336        C  0.05134168  0.36560299  0.68545042    -0.10800
C337        C  0.06818380  0.36251879  0.72616037    -0.11600
C338        C  0.11027399  0.36581941  0.73226762     0.19900
C339        C  0.13544801  0.37204471  0.69753812    -0.13600
C340        C  0.11863827  0.37512492  0.65689687    -0.11900
C341        C  0.12780106  0.36385914  0.77418905     0.00900
C342        C  0.14528683  0.36393035  0.80798663    -0.31900
C343        C  0.05918389  0.37582763  0.60917948     0.02300
C344        C  0.04341887  0.37926435  0.57492360    -0.33600
H345        H  0.01870987  0.36321999  0.68104673     0.13300
H346        H  0.04842295  0.35783623  0.75283332     0.13100
H347        H  0.16800448  0.37476995  0.70196916     0.13000
H348        H  0.13835995  0.38013531  0.63034054     0.12000
C349        C  0.57092081  0.35678492  0.65820191     0.18400
C350        C  0.56224973  0.37664262  0.68810113    -0.10800
C351        C  0.57812520  0.37498127  0.72942406    -0.11600
C352        C  0.60268847  0.35340745  0.74116358     0.19900
C353        C  0.61082800  0.33330568  0.71146856    -0.13600
C354        C  0.59496309  0.33498349  0.67008054    -0.11900
C355        C  0.62080777  0.35250409  0.78305211     0.00900
C356        C  0.63732555  0.35256345  0.81747148    -0.31900
C357        C  0.55542115  0.35909198  0.61535828     0.02300
C358        C  0.54114662  0.36211396  0.58021163    -0.33600
H359        H  0.54356120  0.39353443  0.67933414     0.13300
H360        H  0.57166097  0.39066363  0.75204010     0.13100
H361        H  0.62982439  0.31654338  0.72013645     0.13000
H362        H  0.60176551  0.31946385  0.64728506     0.12000
C363        C  0.61997651  0.38279020  0.26825690     0.18400
C364        C  0.57864597  0.37651146  0.27354299    -0.10800
C365        C  0.56207880  0.37472045  0.31445664    -0.11600
C366        C  0.58674157  0.37925251  0.35019670     0.19900
C367        C  0.62804372  0.38569806  0.34496731    -0.13600
C368        C  0.64466993  0.38742025  0.30399884    -0.11900
C369        C  0.56929349  0.37717835  0.39202035     0.00900
C370        C  0.55154695  0.37530471  0.42547330    -0.31900
C371        C  0.63745752  0.38342257  0.22630836     0.02300
C372        C  0.65387288  0.38272189  0.19201038    -0.33600
H373        H  0.55938164  0.37274777  0.24611955     0.13300
H374        H  0.53014672  0.36960565  0.31826025     0.13100
H375        H  0.64734410  0.38922094  0.37244468     0.13000
H376        H  0.67675527  0.39213828  0.30018905     0.12000
C377        C  0.88886679  0.36909119  0.73126444     0.18400
C378        C  0.89696080  0.39439047  0.71477417    -0.10800
C379        C  0.91359638  0.39715693  0.67399634    -0.11600
C380        C  0.92212462  0.37463762  0.64945746     0.19900
C381        C  0.91444921  0.34929685  0.66608150    -0.13600
C382        C  0.89776130  0.34652375  0.70692183    -0.11900
C383        C  0.93935452  0.37762825  0.60756583     0.00900
C384        C  0.95564386  0.38052820  0.57342859    -0.31900
C385        C  0.86993296  0.36657852  0.77242785     0.02300
C386        C  0.85205324  0.36634833  0.80599153    -0.33600
H387        H  0.89007939  0.41196952  0.73329500     0.13300
H388        H  0.91964576  0.41682887  0.66154401     0.13100
H389        H  0.92118730  0.33174770  0.64744238     0.13000
H390        H  0.89150306  0.32687254  0.71933597     0.12000
C391        C  0.92933909  0.39595151  0.33979256     0.18400
C392        C  0.93421838  0.41872919  0.31460850    -0.10800
C393        C  0.91970018  0.41905511  0.27262891    -0.11600
C394        C  0.90034836  0.39658058  0.25576541     0.19900
C395        C  0.89602624  0.37373784  0.28081301    -0.13600
C396        C  0.91052978  0.37341058  0.32268411    -0.11900
C397        C  0.88348724  0.39704150  0.21341902     0.00900
C398        C  0.86718686  0.39653961  0.17897340    -0.31900
C399        C  0.94439208  0.39533300  0.38283267     0.02300
C400        C  0.95889349  0.39369587  0.41803733    -0.33600
H401        H  0.94911683  0.43618002  0.32742681     0.13300
H402        H  0.92322225  0.43682781  0.25352095     0.13100
H403        H  0.88111238  0.35626467  0.26808971     0.13000
H404        H  0.90693071  0.35563096  0.34176575     0.12000
C405        C  0.58492533  0.11502113  0.35480691     0.18400
C406        C  0.56687038  0.09958110  0.32279518    -0.10800
C407        C  0.58411590  0.09884729  0.28201002    -0.11600
C408        C  0.61938266  0.11360661  0.27319127     0.19900
C409        C  0.63773692  0.12869098  0.30541775    -0.13600
C410        C  0.62052964  0.12941417  0.34613824    -0.11900
C411        C  0.63650869  0.11392724  0.23101902     0.00900
C412        C  0.65307362  0.11557558  0.19684223    -0.31900
C413        C  0.56586856  0.11714719  0.39588106     0.02300
C414        C  0.54822662  0.11982049  0.42926721    -0.33600
H415        H  0.53918061  0.08848809  0.32918227     0.13300
H416        H  0.56970613  0.08711611  0.25730256     0.13100
H417        H  0.66502758  0.14016291  0.29889754     0.13000
H418        H  0.63460094  0.14149062  0.37063461     0.12000
C419        C  0.57289040  0.13516625  0.66233742     0.18400
C420        C  0.56492921  0.15782286  0.68685089    -0.10800
C421        C  0.57930115  0.15943003  0.72877051    -0.11600
C422        C  0.60163026  0.13836152  0.74630346     0.19900
C423        C  0.60948270  0.11569802  0.72180811    -0.13600
C424        C  0.59509495  0.11408504  0.67993817    -0.11900
C425        C  0.61755471  0.14014593  0.78893165     0.00900
C426        C  0.63320491  0.14101186  0.82366755    -0.31900
C427        C  0.55738349  0.13326263  0.61955927     0.02300
C428        C  0.54255734  0.13147549  0.58451607    -0.33600
H429        H  0.54753676  0.17416174  0.67361118     0.13300
H430        H  0.57314407  0.17707196  0.74740324     0.13100
H431        H  0.62682922  0.09933202  0.73503191     0.13000
H432        H  0.60124069  0.09642856  0.66133453     0.12000
C433        C  0.92453452  0.12446094  0.34461418     0.18400
C434        C  0.93636057  0.10190438  0.32162056    -0.10800
C435        C  0.92160397  0.09775371  0.28032499    -0.11600
C436        C  0.89472436  0.11607253  0.26185567     0.19900
C437        C  0.88236823  0.13844663  0.28508811    -0.13600
C438        C  0.89731800  0.14267161  0.32634894    -0.11900
C439        C  0.87974638  0.11195598  0.21916737     0.00900
C440        C  0.86558208  0.10919827  0.18393033    -0.31900
C441        C  0.94132239  0.12906026  0.38639745     0.02300
C442        C  0.95779494  0.13183524  0.42050437    -0.33600
H443        H  0.95736167  0.08767916  0.33545123     0.13300
H444        H  0.93127729  0.08035265  0.26276626     0.13100
H445        H  0.86143346  0.15268986  0.27120230     0.13000
H446        H  0.88791782  0.16016990  0.34382403     0.12000
C447        C  0.92127322  0.13329257  0.65181317     0.18400
C448        C  0.88783077  0.14965985  0.66095995    -0.10800
C449        C  0.86886500  0.14827170  0.70086194    -0.11600
C450        C  0.88328337  0.13053992  0.73184824     0.19900
C451        C  0.91663191  0.11407111  0.72263611    -0.13600
C452        C  0.93559598  0.11545375  0.68270690    -0.11900
C453        C  0.86368618  0.12922679  0.77292238     0.00900
C454        C  0.84620518  0.12814543  0.80674306    -0.31900
C455        C  0.94096209  0.13484063  0.61085094     0.02300
C456        C  0.95826904  0.13573100  0.57694187    -0.33600
H457        H  0.87647946  0.16349717  0.63730478     0.13300
H458        H  0.84303044  0.16103930  0.70757621     0.13100
H459        H  0.92797794  0.10023021  0.74628832     0.13000
H460        H  0.96143021  0.10268712  0.67596006     0.12000
C461        C  0.42286301  0.13497409  0.65762681     0.18400
C462        C  0.38080008  0.13707905  0.66488265    -0.10800
C463        C  0.36592460  0.13814162  0.70661168    -0.11600
C464        C  0.39308208  0.13712046  0.74111729     0.19900
C465        C  0.43513188  0.13492116  0.73383331    -0.13600
C466        C  0.44998380  0.13382376  0.69213270    -0.11900
C467        C  0.37764538  0.13830621  0.78390305     0.00900
C468        C  0.36296950  0.13922640  0.81904150    -0.31900
C469        C  0.43852552  0.13386119  0.61495194     0.02300
C470        C  0.45482253  0.13249315  0.58065031    -0.33600
H471        H  0.35960473  0.13790441  0.63838593     0.13300
H472        H  0.33332684  0.13978599  0.71198419     0.13100
H473        H  0.45635938  0.13406074  0.76030274     0.13000
H474        H  0.48254952  0.13205932  0.68678432     0.12000
C475        C  0.39117760  0.11664530  0.26782871     0.18400
C476        C  0.36819838  0.10964854  0.30381391    -0.10800
C477        C  0.38585065  0.11066597  0.34435075    -0.11600
C478        C  0.42654581  0.11869864  0.34904298     0.19900
C479        C  0.44969749  0.12540761  0.31302712    -0.13600
C480        C  0.43202339  0.12441006  0.27246865    -0.11900
C481        C  0.44440229  0.12045949  0.39078942     0.00900
C482        C  0.46032288  0.12226924  0.42527875    -0.31900
C483        C  0.37219989  0.11683032  0.22649925     0.02300
C484        C  0.35417322  0.11785636  0.19305951    -0.33600
H485        H  0.33654178  0.10370929  0.30056796     0.13300
H486        H  0.36770952  0.10543763  0.37200312     0.13100
H487        H  0.48122123  0.13163066  0.31635314     0.13000
H488        H  0.45000865  0.12994962  0.24486382     0.12000
C489        C  0.11465152  0.13268383  0.73487982     0.18400
C490        C  0.13986931  0.13102620  0.69886992    -0.10800
C491        C  0.12290355  0.13223935  0.65801540    -0.11600
C492        C  0.08063863  0.13515015  0.65300700     0.19900
C493        C  0.05543502  0.13708085  0.68900568    -0.13600
C494        C  0.07240721  0.13584197  0.72989012    -0.11900
C495        C  0.06294405  0.13564367  0.61105421     0.00900
C496        C  0.04642862  0.13565578  0.57671935    -0.31900
C497        C  0.13232903  0.13064799  0.77673683     0.02300
C498        C  0.14963639  0.12846180  0.81046375    -0.33600
H499        H  0.17258188  0.12858319  0.70239220     0.13300
H500        H  0.14265164  0.13071313  0.63040637     0.13100
H501        H  0.02270267  0.13935759  0.68544972     0.13000
H502        H  0.05263237  0.13714586  0.75750604     0.12000
C503        C  0.10999702  0.11610892  0.26194213     0.18400
C504        C  0.13640198  0.12164490  0.29598538    -0.10800
C505        C  0.12069055  0.12542991  0.33701360    -0.11600
C506        C  0.07852213  0.12375219  0.34407270     0.19900
C507        C  0.05216883  0.11834850  0.30998266    -0.13600
C508        C  0.06784760  0.11450286  0.26901707    -0.11900
C509        C  0.06202729  0.12750803  0.38613100     0.00900
C510        C  0.04593285  0.13028726  0.42039329    -0.31900
C511        C  0.12617010  0.11215680  0.21980333     0.02300
C512        C  0.14087520  0.10923409  0.18491342    -0.33600
H513        H  0.16906104  0.12299259  0.29081512     0.13300
H514        H  0.14133873  0.12963969  0.36313788     0.13100
H515        H  0.01954125  0.11715645  0.31508086     0.13000
H516        H  0.04715293  0.11030355  0.24292368     0.12000
N517        N  0.56266100  0.74900533  0.02877316    -0.35300
N518        N  0.50183050  0.70733401  0.02057379    -0.55800
N519        N  0.43760025  0.74778905  0.02079380    -0.35300
N520        N  0.49840859  0.78955134  0.02475178    -0.55800
C521        C  0.58702254  0.72776336  0.02114944     0.28300
C522        C  0.58538258  0.77107365  0.02206921     0.28300
C523        C  0.41557931  0.72597807  0.01050372     0.28300
C524        C  0.41354239  0.76924752  0.01384186     0.28300
C525        C  0.53491546  0.69201823  0.02838485     0.36900
C526        C  0.46883552  0.69136906  0.02400718     0.36900
C527        C  0.53096311  0.80553888  0.03140614     0.36900
C528        C  0.46461481  0.80478542  0.02922975     0.36900
C529        C  0.62583488  0.73645298  0.01032804    -0.20600
C530        C  0.62479897  0.76369536  0.01084812    -0.20600
C531        C  0.37690673  0.73367981  0.99725271    -0.20600
C532        C  0.37559425  0.76090853  0.99943708    -0.20600
C533        C  0.52295056  0.66613411  0.03652477    -0.21600
C534        C  0.48103670  0.66571995  0.03378498    -0.21600
C535        C  0.51782153  0.83117612  0.03967111    -0.21600
C536        C  0.47579982  0.83068790  0.03838870    -0.21600
C537        C  0.57581003  0.70072666  0.02522470    -0.17000
C538        C  0.57234052  0.79770486  0.02746555    -0.17000
C539        C  0.42403260  0.79603995  0.02219128    -0.17000
C540        C  0.42812064  0.69926355  0.01592455    -0.17000
H541        H  0.65224340  0.72443352  0.00275981     0.15900
H542        H  0.65031838  0.77658327  0.00374440     0.15900
H543        H  0.35192723  0.72099089  0.98757152     0.15900
H544        H  0.34945300  0.77312386  0.99162556     0.15900
H545        H  0.54240576  0.64927367  0.04324800     0.14200
H546        H  0.46180043  0.64844720  0.03798135     0.14200
H547        H  0.53656199  0.84848306  0.04554323     0.14200
H548        H  0.45581926  0.84756205  0.04294022     0.14200
H549        H  0.53361806  0.74848325  0.04195195     0.27500
H550        H  0.46550357  0.74780108  0.03638238     0.27500
N551        N  0.06405747  0.49867088  0.97933830    -0.35300
N552        N  0.99699656  0.95671488  0.97791554    -0.55800
N553        N  0.93878823  0.49969048  0.97459556    -0.35300
N554        N  0.00172600  0.54042031  0.98003626    -0.55800
C555        C  0.08343477  0.97507551  0.98903927     0.28300
C556        C  0.08778486  0.52016726  0.98676290     0.28300
C557        C  0.91162234  0.97718058  0.98095892     0.28300
C558        C  0.91540792  0.52144024  0.98158286     0.28300
C559        C  0.02994935  0.94064592  0.97447543     0.36900
C560        C  0.96361813  0.94146576  0.97096041     0.36900
C561        C  0.03530042  0.55597433  0.97726255     0.36900
C562        C  0.96899315  0.55648730  0.97465066     0.36900
C563        C  0.12221385  0.98240524  0.00254653    -0.20600
C564        C  0.12678952  0.51185604  0.99786765    -0.20600
C565        C  0.87296675  0.98545291  0.99326891    -0.20600
C566        C  0.87627401  0.51356218  0.99289290    -0.20600
C567        C  0.01738088  0.91493245  0.96579031    -0.21600
C568        C  0.97538026  0.91545564  0.96356926    -0.21600
C569        C  0.02378005  0.58216746  0.97093528    -0.21600
C570        C  0.98179131  0.58248819  0.96928844    -0.21600
C571        C  0.07097760  0.94850252  0.98163419    -0.17000
C572        C  0.07614986  0.54710391  0.98185441    -0.17000
C573        C  0.92769548  0.54823461  0.97665788    -0.17000
C574        C  0.92266446  0.95033695  0.97416907    -0.17000
H575        H  0.14744370  0.96949010  0.01064523     0.15900
H576        H  0.15292772  0.52413323  0.00534318     0.15900
H577        H  0.84660817  0.97320272  0.00002961     0.15900
H578        H  0.85044670  0.52611699  0.00032636     0.15900
H579        H  0.03643014  0.89753256  0.96207894     0.14200
H580        H  0.95573614  0.89855854  0.95782178     0.14200
H581        H  0.04354479  0.59929058  0.96803967     0.14200
H582        H  0.96285984  0.59989254  0.96495012     0.14200
H583        H  0.03516405  0.49896563  0.96595557     0.27500
H584        H  0.96767622  0.49954530  0.96105934     0.27500
O585        O  0.24953587  0.60596089  0.92161230    -0.87000
C586        C  0.28688965  0.67723991  0.96855784     0.89000
Mg587      Mg  0.18963264  0.58991957  0.93314280     1.58100
O588        O  0.32980315  0.62187318  0.01996462    -0.86700
O589        O  0.31399618  0.59517393  0.93028557    -0.74100
C590        C  0.16289777  0.60597113  0.14143411     0.94100
O591        O  0.19612530  0.65810213  0.93974955    -0.73900
O592        O  0.14157226  0.60448532  0.10762350    -0.81400
Mg593      Mg  0.25202807  0.64641058  0.89980331     1.58000
C594        C  0.33251292  0.61836662  0.15101446     0.94000
O595        O  0.30565120  0.63822395  0.85446475    -0.79700
H596        H  0.36053502  0.58766343  0.01651180    -0.05000
C597        C  0.22990724  0.65466649  0.07693151     0.88900
O598        O  0.21430279  0.56387982  0.98733170    -0.74200
O599        O  0.29220622  0.65546819  0.95137471    -0.86900
O600        O  0.34471078  0.63321748  0.12075200    -0.79700
C601        C  0.39596017  0.67870998  0.01525419     0.94100
C602        C  0.34446278  0.63970209  0.85432409     0.94000
Mg603      Mg  0.25507844  0.59785624  0.09545188     1.58000
O604        O  0.20176977  0.60645833  0.14097138    -0.79700
O605        O  0.31065137  0.58617879  0.05481384    -0.73900
O606        O  0.38567268  0.66807885  0.97988454    -0.79700
O607        O  0.20873207  0.63814040  0.84542673    -0.81500
O608        O  0.12005078  0.57793570  0.01635116    -0.79800
C609        C  0.33511166  0.59839172  0.03017437     0.88400
O610        O  0.21436945  0.58896293  0.04423087    -0.86900
O611        O  0.25773642  0.63820275  0.07350802    -0.87000
O612        O  0.19371071  0.64973484  0.06464782    -0.74100
Mg613      Mg  0.34699161  0.63221831  0.95635733     1.58000
O614        O  0.37848709  0.67307261  0.05026846    -0.81500
H615        H  0.27137680  0.57027265  0.90561723    -0.05200
O616        O  0.17755249  0.62263963  0.97536667    -0.86700
H617        H  0.14605794  0.65658265  0.97776968    -0.05000
H618        H  0.22993814  0.55062399  0.04619738    -0.05200
C619        C  0.17178220  0.64594910  0.96454356     0.88400
C620        C  0.27782161  0.58978975  0.91821147     0.89000
C621        C  0.21945558  0.56714165  0.02708965     0.89000
H622        H  0.23687137  0.67411241  0.08950452    -0.05200
O623        O  0.29222303  0.68048130  0.00829184    -0.74200
Mg624      Mg  0.16013534  0.61298657  0.03918023     1.58000
H625        H  0.27618507  0.69372769  0.94951846    -0.05200
C626        C  0.17469990  0.62608051  0.84437796     0.94000
O627        O  0.12752995  0.57158770  0.94626116    -0.81400
C628        C  0.10940256  0.56698443  0.98140419     0.94000
O629        O  0.36546829  0.64149143  0.88828603    -0.81400
Mg630      Mg  0.31712658  0.65439126  0.06241547     1.58200
O631        O  0.16229310  0.61128808  0.87466386    -0.79700
O632        O  0.29875497  0.60599015  0.14977389    -0.81400
O633        O  0.75036549  0.64002667  0.07582464    -0.87000
C634        C  0.78718759  0.56918500  0.02572699     0.89000
Mg635      Mg  0.69044260  0.65642556  0.06790938     1.58100
O636        O  0.82718753  0.62489505  0.97296738    -0.86700
O637        O  0.81399077  0.65148911  0.06345479    -0.74100
C638        C  0.65454916  0.64089990  0.86107074     0.94100
O639        O  0.69656679  0.58792836  0.05825707    -0.73900
O640        O  0.63458405  0.64294772  0.89569503    -0.81400
Mg641      Mg  0.75399304  0.59921425  0.09584794     1.58000
C642        C  0.82322467  0.62914537  0.84192842     0.94000
O643        O  0.80878534  0.60705940  0.13899634    -0.79700
H644        H  0.85857397  0.65890897  0.97410062    -0.05000
C645        C  0.72457873  0.59199846  0.92175975     0.88900
O646        O  0.71299072  0.68266302  0.01289733    -0.74200
O647        O  0.79236968  0.59108910  0.04251472    -0.86900
O648        O  0.83760150  0.61414882  0.87107152    -0.79700
C649        C  0.89504034  0.56863997  0.97624505     0.94100
C650        C  0.84758652  0.60668924  0.13810399     0.94000
Mg651      Mg  0.74871803  0.64880330  0.90224260     1.58000
O652        O  0.69335423  0.64007923  0.85995480    -0.79700
O653        O  0.80648904  0.66057465  0.93915820    -0.73900
O654        O  0.88532890  0.57977672  0.01132043    -0.79700
O655        O  0.71294472  0.60631058  0.15216933    -0.81500
O656        O  0.61779902  0.66957187  0.98871147    -0.79800
C657        C  0.83223370  0.64829892  0.96222301     0.88400
O658        O  0.71080404  0.65764777  0.95595109    -0.86900
O659        O  0.75292843  0.60824837  0.92314541    -0.87000
O660        O  0.68904345  0.59736580  0.93581397    -0.74100
Mg661      Mg  0.84664147  0.61489326  0.03602518     1.58000
O662        O  0.87640880  0.57351773  0.94138549    -0.81500
H663        H  0.77224799  0.67583767  0.09089570    -0.05200
O664        O  0.67600314  0.62408699  0.02575953    -0.86700
H665        H  0.64438859  0.59019747  0.02361196    -0.05000
H666        H  0.72662178  0.69593612  0.95348817    -0.05200
C667        C  0.67080233  0.60058744  0.03581221     0.88400
C668        C  0.77846606  0.65641445  0.07781068     0.89000
C669        C  0.71673260  0.67942634  0.97295044     0.89000
H670        H  0.73047030  0.57239614  0.90921118    -0.05200
O671        O  0.79128142  0.56586773  0.98586830    -0.74200
Mg672      Mg  0.65631336  0.63417533  0.96314273     1.58000
H673        H  0.77765043  0.55262967  0.04528043    -0.05200
C674        C  0.67928819  0.61860517  0.15559199     0.94000
O675        O  0.62818135  0.67558843  0.05849651    -0.81400
C676        C  0.60886312  0.68060846  0.02418344     0.94000
O677        O  0.86783322  0.60583993  0.10354019    -0.81400
Mg678      Mg  0.81347931  0.59223615  0.93101300     1.58200
O679        O  0.66592791  0.63435732  0.12703061    -0.79700
O680        O  0.78919184  0.64101435  0.84544825    -0.81400
O681        O  0.74566597  0.89120161  0.92362472    -0.87000
C682        C  0.71120126  0.81988002  0.97417883     0.89000
Mg683      Mg  0.80610581  0.90742298  0.93108929     1.58100
O684        O  0.67141163  0.87506784  0.02844618    -0.86700
O685        O  0.68211976  0.90207807  0.93778954    -0.74100
C686        C  0.84611080  0.89219924  0.13704354     0.94100
O687        O  0.80032202  0.83903836  0.93861621    -0.73900
O688        O  0.86485075  0.89317177  0.10160023    -0.81400
Mg689      Mg  0.74181817  0.85049409  0.90288110     1.58000
C690        C  0.67719713  0.87850732  0.15947812     0.94000
O691        O  0.68539016  0.85796560  0.86131858    -0.79700
H692        H  0.63930203  0.90880656  0.02831626    -0.05000
C693        C  0.77472627  0.84235629  0.07812704     0.88900
O694        O  0.78444913  0.93330684  0.98681322    -0.74200
O695        O  0.70497506  0.84170030  0.95739923    -0.86900
O696        O  0.66294856  0.86363296  0.13021570    -0.79700
C697        C  0.60437519  0.81844613  0.02688678     0.94100
C698        C  0.64664520  0.85681163  0.86380743     0.94000
Mg699      Mg  0.75054590  0.89922626  0.09825388     1.58000
O700        O  0.80731102  0.89144636  0.13967447    -0.79700
O701        O  0.69187736  0.91065826  0.06243702    -0.73900
O702        O  0.61299068  0.82969240  0.99154905    -0.79700
O703        O  0.78149140  0.85860160  0.84543087    -0.81500
O704        O  0.88014570  0.91921224  0.00952516    -0.79800
C705        C  0.66604165  0.89834437  0.03959495     0.88400
O706        O  0.78746404  0.90815686  0.04368111    -0.86900
O707        O  0.74651391  0.85868257  0.07714406    -0.87000
O708        O  0.80984883  0.84751630  0.06295568    -0.74100
Mg709      Mg  0.65055997  0.86513783  0.96588891     1.58000
O710        O  0.62379535  0.82337192  0.06115640    -0.81500
H711        H  0.72280603  0.92697670  0.90977321    -0.05200
O712        O  0.82051775  0.87466297  0.97256367    -0.86700
H713        H  0.85289113  0.84103952  0.97267652    -0.05000
H714        H  0.77157081  0.94642320  0.04644163    -0.05200
C715        C  0.82608049  0.85142130  0.96139863     0.88400
C716        C  0.71725041  0.90740962  0.92268904     0.89000
C717        C  0.78123975  0.92996364  0.02680127     0.89000
H718        H  0.76896160  0.82282262  0.09107151    -0.05200
O719        O  0.70806586  0.81651842  0.01415390    -0.74200
Mg720      Mg  0.84162484  0.88431393  0.03499902     1.58000
H721        H  0.72081563  0.80343739  0.95447340    -0.05200
C722        C  0.81521109  0.87086778  0.84182595     0.94000
O723        O  0.86930767  0.92615582  0.94010964    -0.81400
C724        C  0.88921299  0.93046357  0.97435064     0.94000
O725        O  0.62773781  0.85591275  0.89917039    -0.81400
Mg726      Mg  0.68636900  0.84236549  0.06988540     1.58200
O727        O  0.82937941  0.88590081  0.87092673    -0.79700
O728        O  0.71084590  0.89087047  0.15581729    -0.81400
O729        O  0.25165658  0.85808430  0.08009079    -0.87000
C730        C  0.21425252  0.92797646  0.02675291     0.89000
Mg731      Mg  0.31120780  0.84123384  0.06928568     1.58100
O732        O  0.17051507  0.87129962  0.97995995    -0.86700
O733        O  0.18720134  0.84719415  0.07187858    -0.74100
C734        C  0.33641125  0.85034449  0.85923756     0.94100
O735        O  0.30570635  0.90917829  0.05716138    -0.73900
O736        O  0.35774665  0.84977104  0.89311207    -0.81400
Mg737      Mg  0.24964328  0.89926214  0.09823566     1.58000
C738        C  0.16747831  0.86465219  0.84809791     0.94000
O739        O  0.19586626  0.89317351  0.14442918    -0.79700
H740        H  0.13837251  0.83774759  0.98542598    -0.05000
C741        C  0.27027777  0.90194886  0.92001363     0.88900
O742        O  0.28540610  0.81391646  0.01729989    -0.74200
O743        O  0.20912488  0.90678866  0.04587574    -0.86900
O744        O  0.15493976  0.88009673  0.87746962    -0.79700
C745        C  0.10339003  0.92795278  0.98194488     0.94100
C746        C  0.15702112  0.89442438  0.14448378     0.94000
Mg747      Mg  0.24406055  0.84475396  0.90597545     1.58000
O748        O  0.29756831  0.85125376  0.85978182    -0.79700
O749        O  0.18809440  0.83464852  0.94712953    -0.73900
O750        O  0.11480072  0.91818307  0.01756874    -0.79700
O751        O  0.29317930  0.89231307  0.15329326    -0.81500
O752        O  0.37919024  0.82581221  0.98632659    -0.79800
C753        C  0.16419992  0.84773829  0.97113612     0.88400
O754        O  0.28461029  0.83714805  0.95828296    -0.86900
O755        O  0.24196323  0.88590160  0.92436390    -0.87000
O756        O  0.30634678  0.89690152  0.93273471    -0.74100
Mg757      Mg  0.15410730  0.88337567  0.04311541     1.58000
O758        O  0.12032643  0.92171086  0.94680952    -0.81500
H759        H  0.22951989  0.82299936  0.09886112    -0.05200
O760        O  0.32319466  0.87252957  0.02424344    -0.86700
H761        H  0.35555549  0.90601583  0.01907323    -0.05000
H762        H  0.26807907  0.79897746  0.96004814    -0.05200
C763        C  0.32961643  0.89606255  0.03320768     0.88400
C764        C  0.22324852  0.84213023  0.08467490     0.89000
C765        C  0.27932891  0.81598001  0.97744538     0.89000
H766        H  0.26389286  0.92114837  0.90612254    -0.05200
O767        O  0.20801802  0.93003186  0.98693267    -0.74200
Mg768      Mg  0.33960274  0.86063543  0.96096855     1.58000
H769        H  0.22542311  0.94500537  0.04414392    -0.05200
C770        C  0.32689718  0.87986892  0.15534852     0.94000
O771        O  0.37328487  0.82191229  0.05703106    -0.81400
C772        C  0.39053776  0.81592272  0.02191066     0.94000
O773        O  0.13598097  0.89469585  0.11044047    -0.81400
Mg774      Mg  0.18241693  0.90263086  0.93489138     1.58200
O775        O  0.33897333  0.86412635  0.12616911    -0.79700
O776        O  0.20086285  0.85190168  0.85073520    -0.81400
C777        C  0.02254101  0.62263221  0.45736475     0.03600
C778        C  0.97957259  0.62424967  0.45671585     0.03600
C779        C  0.95800440  0.62798668  0.49478315    -0.16900
C780        C  0.97888594  0.62987247  0.53362250     0.03600
C781        C  0.02181037  0.62784212  0.53440845     0.03600
C782        C  0.04343477  0.62435783  0.49624716    -0.16900
H783        H  0.07649090  0.62292399  0.49682264     0.05600
H784        H  0.92493042  0.62926508  0.49421158     0.05600
C785        C  0.97633316  0.88590594  0.45836237     0.03600
C786        C  0.01915820  0.88795833  0.46110913     0.03600
C787        C  0.03855929  0.88610757  0.50079957    -0.18100
C788        C  0.01559180  0.88208598  0.53793178     0.03600
C789        C  0.97270740  0.88011319  0.53525736     0.03600
C790        C  0.95328345  0.88209097  0.49551011    -0.16900
H791        H  0.92030341  0.88047434  0.49346362     0.05600
H792        H  0.07157150  0.88749364  0.50272470     0.05600
C793        C  0.52040555  0.87346623  0.46768195     0.03600
C794        C  0.47773325  0.87697570  0.46599882     0.03600
C795        C  0.45465568  0.87590149  0.50364257    -0.16900
C796        C  0.47380930  0.87102737  0.54284796     0.03600
C797        C  0.51640730  0.86712080  0.54433379     0.03600
C798        C  0.53951486  0.86853418  0.50683417    -0.16900
H799        H  0.57234225  0.86571286  0.50810478     0.05600
H800        H  0.42180669  0.87858123  0.50236774     0.05600
C801        C  0.52698239  0.62099041  0.46353570     0.03600
C802        C  0.48431260  0.62448649  0.46176545     0.03600
C803        C  0.46255523  0.62989879  0.49919038    -0.16900
C804        C  0.48307064  0.63188975  0.53823638     0.03600
C805        C  0.52575696  0.62847195  0.53995195     0.03600
C806        C  0.54750471  0.62303208  0.50256359    -0.16900
H807        H  0.58037561  0.62042708  0.50382104     0.05600
H808        H  0.42967820  0.63246570  0.49796063     0.05600
C809        C  0.39066334  0.88517377  0.26663524     0.18400
C810        C  0.37811244  0.90342229  0.29767845    -0.10800
C811        C  0.39570292  0.90297069  0.33832221    -0.11600
C812        C  0.42590054  0.88425085  0.34813736     0.19900
C813        C  0.43906215  0.86633602  0.31685589    -0.13600
C814        C  0.42142969  0.86676426  0.27621603    -0.11900
C815        C  0.44261171  0.88290477  0.39053213     0.00900
C816        C  0.45737538  0.88080708  0.42559576    -0.31900
C817        C  0.37046690  0.88445593  0.22583133     0.02300
C818        C  0.35162993  0.88294639  0.19285166    -0.33600
H819        H  0.35426443  0.91768430  0.29069175     0.13300
H820        H  0.38534406  0.91692912  0.36224099     0.13100
H821        H  0.46247671  0.85181078  0.32407786     0.13000
H822        H  0.43129238  0.85249795  0.25253682     0.12000
C823        C  0.41736744  0.86307257  0.65801641     0.18400
C824        C  0.43262162  0.84246121  0.68353212    -0.10800
C825        C  0.41740715  0.83860347  0.72479082    -0.11600
C826        C  0.38696365  0.85542095  0.74078326     0.19900
C827        C  0.37176781  0.87603409  0.71526288    -0.13600
C828        C  0.38693915  0.87987069  0.67401200    -0.11900
C829        C  0.37135481  0.85187038  0.78338167     0.00900
C830        C  0.35658723  0.85038719  0.81856088    -0.31900
C831        C  0.43351326  0.86708741  0.61576907     0.02300
C832        C  0.44975427  0.86949882  0.58144737    -0.33600
H833        H  0.45633871  0.82944403  0.67156812     0.13300
H834        H  0.42945504  0.82262773  0.74420831     0.13100
H835        H  0.34827654  0.88918477  0.72731614     0.13000
H836        H  0.37504422  0.89593727  0.65468591     0.12000
C837        C  0.07461746  0.89421331  0.34570109     0.18400
C838        C  0.10591150  0.91194420  0.33501529    -0.10800
C839        C  0.12070724  0.91289579  0.29321459    -0.11600
C840        C  0.10419358  0.89615778  0.26199256     0.19900
C841        C  0.07255838  0.87864956  0.27261056    -0.13600
C842        C  0.05779391  0.87768832  0.31438713    -0.11900
C843        C  0.12081582  0.89621581  0.21955364     0.00900
C844        C  0.13639584  0.89562433  0.18475987    -0.31900
C845        C  0.05925519  0.89302796  0.38854984     0.02300
C846        C  0.04326652  0.89117740  0.42298967    -0.33600
H847        H  0.11896323  0.92488951  0.35896824     0.13300
H848        H  0.14523537  0.92647187  0.28533362     0.13100
H849        H  0.05960412  0.86560363  0.24873904     0.13000
H850        H  0.03336840  0.86403293  0.32230943     0.12000
C851        C  0.07131308  0.87295750  0.65388444     0.18400
C852        C  0.11151630  0.86358940  0.65701744    -0.10800
C853        C  0.12956802  0.86003521  0.69708663    -0.11600
C854        C  0.10749309  0.86579005  0.73426068     0.19900
C855        C  0.06723328  0.87505461  0.73110518    -0.13600
C856        C  0.04917502  0.87859333  0.69104326    -0.11900
C857        C  0.12670542  0.86328376  0.77546503     0.00900
C858        C  0.14414356  0.86278116  0.80938513    -0.31900
C859        C  0.05271205  0.87667910  0.61264660     0.02300
C860        C  0.03644616  0.87945555  0.57838904    -0.33600
H861        H  0.12892453  0.85914019  0.62852822     0.13300
H862        H  0.16079331  0.85301376  0.69907104     0.13100
H863        H  0.04993320  0.87972510  0.75957092     0.13000
H864        H  0.01805185  0.88581006  0.68903700     0.12000
C865        C  0.56441963  0.85776306  0.66302901     0.18400
C866        C  0.56792250  0.88122407  0.68659910    -0.10800
C867        C  0.58153962  0.88039962  0.72875681    -0.11600
C868        C  0.59161780  0.85609100  0.74764141     0.19900
C869        C  0.58775205  0.83252828  0.72424082    -0.13600
C870        C  0.57407548  0.83335588  0.68196466    -0.11900
C871        C  0.60777579  0.85564977  0.79026452     0.00900
C872        C  0.62386632  0.85611089  0.82480314    -0.31900
C873        C  0.55037405  0.85904849  0.61968079     0.02300
C874        C  0.53659207  0.86202378  0.58439840    -0.33600
H875        H  0.56032412  0.90017211  0.67229627     0.13300
H876        H  0.58460565  0.89873247  0.74648171     0.13100
H877        H  0.59566370  0.81362651  0.73850513     0.13000
H878        H  0.57125548  0.81507839  0.66405328     0.12000
C879        C  0.61914507  0.88027512  0.27432538     0.18400
C880        C  0.63697930  0.86522848  0.30699795    -0.10800
C881        C  0.61850666  0.86397060  0.34714283    -0.11600
C882        C  0.58210245  0.87775456  0.35480173     0.19900
C883        C  0.56425601  0.89284027  0.32216870    -0.13600
C884        C  0.58276881  0.89412356  0.28200741    -0.11900
C885        C  0.56264588  0.87608283  0.39583343     0.00900
C886        C  0.54472354  0.87473509  0.42933107    -0.31900
C887        C  0.63803359  0.88109441  0.23289646     0.02300
C888        C  0.65508656  0.88063083  0.19882829    -0.33600
H889        H  0.66504790  0.85438861  0.30137379     0.13300
H890        H  0.63247310  0.85217725  0.37209606     0.13100
H891        H  0.53597939  0.90347360  0.32771916     0.13000
H892        H  0.56865660  0.90576233  0.25696004     0.12000
C893        C  0.87339613  0.86818488  0.72729814     0.18400
C894        C  0.85518543  0.88289927  0.69448745    -0.10800
C895        C  0.87369421  0.88425663  0.65440481    -0.11600
C896        C  0.91049637  0.87089465  0.64694478     0.19900
C897        C  0.92862725  0.85602006  0.67965489    -0.13600
C898        C  0.91008033  0.85464828  0.71978721    -0.11900
C899        C  0.93038168  0.87328116  0.60626750     0.00900
C900        C  0.94846393  0.87609857  0.57312090    -0.31900
C901        C  0.85465375  0.86756230  0.76874983     0.02300
C902        C  0.83753364  0.86837435  0.80272749    -0.33600
H903        H  0.82688045  0.89349932  0.70001018     0.13300
H904        H  0.85955563  0.89592333  0.62940235     0.13100
H905        H  0.95724384  0.84574898  0.67426088     0.13000
H906        H  0.92447410  0.84327778  0.74497811     0.12000
C907        C  0.92882716  0.88898185  0.33794792     0.18400
C908        C  0.89242562  0.87621704  0.32668186    -0.10800
C909        C  0.87862883  0.87696702  0.28453043    -0.11600
C910        C  0.90114446  0.89044206  0.25330231     0.19900
C911        C  0.93778917  0.90307028  0.26440528    -0.13600
C912        C  0.95161011  0.90232833  0.30667387    -0.11900
C913        C  0.88568426  0.89164896  0.21034001     0.00900
C914        C  0.86927318  0.89208294  0.17590932    -0.31900
C915        C  0.94287346  0.88816682  0.38147867     0.02300
C916        C  0.95618106  0.88721002  0.41734001    -0.33600
H917        H  0.87464310  0.86576495  0.35049890     0.13300
H918        H  0.85024694  0.86716218  0.27632407     0.13100
H919        H  0.95546539  0.91357170  0.24055584     0.13000
H920        H  0.97990022  0.91220642  0.31499122     0.12000
C921        C  0.58383089  0.61135704  0.34942643     0.18400
C922        C  0.56352016  0.62336692  0.31516951    -0.10800
C923        C  0.58106920  0.62319134  0.27460028    -0.11600
C924        C  0.61896115  0.61096465  0.26816004     0.19900
C925        C  0.63892011  0.59847411  0.30224516    -0.13600
C926        C  0.62135610  0.59866571  0.34287626    -0.11900
C927        C  0.63835330  0.61252958  0.22718695     0.00900
C928        C  0.65600969  0.61498147  0.19376304    -0.31900
C929        C  0.56656591  0.61299999  0.39137404     0.02300
C930        C  0.55000005  0.61596705  0.42526840    -0.33600
H931        H  0.53448954  0.63324194  0.31999129     0.13300
H932        H  0.56548950  0.63298453  0.24848099     0.13100
H933        H  0.66832772  0.58904920  0.29757054     0.13000
H934        H  0.63727686  0.58934509  0.36921306     0.12000
C935        C  0.57693975  0.63404818  0.65814586     0.18400
C936        C  0.55300798  0.64660719  0.68920746    -0.10800
C937        C  0.56660666  0.64793586  0.73141587    -0.11600
C938        C  0.60425060  0.63675710  0.74271931     0.19900
C939        C  0.62832283  0.62435289  0.71159371    -0.13600
C940        C  0.61467354  0.62297227  0.66939442    -0.11900
C941        C  0.61860790  0.63831342  0.78600793     0.00900
C942        C  0.63307655  0.63959522  0.82128480    -0.31900
C943        C  0.56216599  0.63204222  0.61507521     0.02300
C944        C  0.54730184  0.63032188  0.58002577    -0.33600
H945        H  0.52380240  0.65527213  0.68082181     0.13300
H946        H  0.54782065  0.65765164  0.75517007     0.13100
H947        H  0.65756931  0.61573174  0.71996457     0.13000
H948        H  0.63339895  0.61319933  0.64564667     0.12000
C949        C  0.92641439  0.61565385  0.34012627     0.18400
C950        C  0.88616038  0.62275589  0.33021569    -0.10800
C951        C  0.87182263  0.62008065  0.28844424    -0.11600
C952        C  0.89770556  0.61033053  0.25647422     0.19900
C953        C  0.93781449  0.60297367  0.26650505    -0.13600
C954        C  0.95213232  0.60562589  0.30826440    -0.11900
C955        C  0.88312315  0.60828199  0.21337099     0.00900
C956        C  0.86875086  0.60723916  0.17806082    -0.31900
C957        C  0.94183913  0.61907542  0.38265588     0.02300
C958        C  0.95740316  0.62173113  0.41718249    -0.33600
H959        H  0.86603987  0.63052588  0.35462490     0.13300
H960        H  0.84071885  0.62579828  0.28100045     0.13100
H961        H  0.95805133  0.59539472  0.24204778     0.13000
H962        H  0.98330634  0.60005059  0.31565177     0.12000
C963        C  0.91758456  0.63668976  0.64649075     0.18400
C964        C  0.88166344  0.62216195  0.65303577    -0.10800
C965        C  0.86314803  0.62186635  0.69319408    -0.11600
C966        C  0.88048903  0.63605948  0.72705564     0.19900
C967        C  0.91600305  0.65102072  0.72032681    -0.13600
C968        C  0.93453280  0.65132603  0.68010434    -0.11900
C969        C  0.86226933  0.63459240  0.76878786     0.00900
C970        C  0.84565628  0.63236888  0.80293417    -0.31900
C971        C  0.93795563  0.63551919  0.60588921     0.02300
C972        C  0.95587769  0.63336338  0.57249687    -0.33600
H973        H  0.86835504  0.61073379  0.62730319     0.13300
H974        H  0.83567058  0.61026053  0.69800541     0.13100
H975        H  0.92965319  0.66209762  0.74625322     0.13000
H976        H  0.96236717  0.66258640  0.67540412     0.12000
C977        C  0.42850946  0.63989876  0.65377622     0.18400
C978        C  0.39581896  0.65662842  0.66404200    -0.10800
C979        C  0.38022600  0.65684301  0.70555090    -0.11600
C980        C  0.39734323  0.64037531  0.73685724     0.19900
C981        C  0.43031517  0.62386852  0.72664504    -0.13600
C982        C  0.44585093  0.62362997  0.68517357    -0.11900
C983        C  0.38047220  0.64001772  0.77915334     0.00900
C984        C  0.36499393  0.63972446  0.81398698    -0.31900
C985        C  0.44425371  0.63899527  0.61108856     0.02300
C986        C  0.46010053  0.63656834  0.57669031    -0.33600
H987        H  0.38225384  0.66930327  0.63998094     0.13300
H988        H  0.35468775  0.66966824  0.71315948     0.13100
H989        H  0.44376906  0.61106740  0.75060269     0.13000
H990        H  0.47123200  0.61067468  0.67751585     0.12000
C991        C  0.39475458  0.61674405  0.26337398     0.18400
C992        C  0.38526349  0.59746130  0.29403493    -0.10800
C993        C  0.40250888  0.59886060  0.33478591    -0.11600
C994        C  0.42924535  0.61959066  0.34509299     0.19900
C995        C  0.43899429  0.63875575  0.31433075    -0.13600
C996        C  0.42177118  0.63734955  0.27357635    -0.11900
C997        C  0.44677358  0.62120818  0.38710619     0.00900
C998        C  0.46270232  0.62271212  0.42169093    -0.31900
C999        C  0.37531852  0.61606935  0.22220019     0.02300
C1000       C  0.35699276  0.61642877  0.18884736    -0.33600
H1001       H  0.36424943  0.58152235  0.28657305     0.13300
H1002       H  0.39481705  0.58390567  0.35828778     0.13100
H1003       H  0.45968091  0.65484973  0.32193184     0.13000
H1004       H  0.42917376  0.65244812  0.25020861     0.12000
C1005       C  0.11324815  0.63081381  0.73193216     0.18400
C1006       C  0.07096733  0.62755227  0.72737690    -0.10800
C1007       C  0.05341057  0.62735937  0.68670276    -0.11600
C1008       C  0.07807313  0.63042941  0.65048809     0.19900
C1009       C  0.12027611  0.63389210  0.65509026    -0.13600
C1010       C  0.13781536  0.63407872  0.69571756    -0.11900
C1011       C  0.06009736  0.62975848  0.60866888     0.00900
C1012       C  0.04382146  0.62898401  0.57423197    -0.31900
C1013       C  0.13187976  0.63000544  0.77345815     0.02300
C1014       C  0.15000657  0.62859804  0.80683126    -0.33600
H1015       H  0.05169780  0.62493246  0.75514616     0.13300
H1016       H  0.02073126  0.62462429  0.68346438     0.13100
H1017       H  0.13961172  0.63626889  0.62731288     0.13000
H1018       H  0.17055606  0.63653659  0.69888529     0.12000
C1019       C  0.11047870  0.61056826  0.25910115     0.18400
C1020       C  0.07970918  0.62912135  0.26772989    -0.10800
C1021       C  0.06373865  0.63132550  0.30893000    -0.11600
C1022       C  0.07849320  0.61501726  0.34171363     0.19900
C1023       C  0.10923210  0.59644043  0.33308995    -0.13600
C1024       C  0.12521797  0.59423779  0.29187048    -0.11900
C1025       C  0.06155428  0.61717012  0.38391983     0.00900
C1026       C  0.04530753  0.61940110  0.41823842    -0.31900
C1027       C  0.12736577  0.60856030  0.21684995     0.02300
C1028       C  0.14264604  0.60716900  0.18194623    -0.33600
H1029       H  0.06812504  0.64187443  0.24266632     0.13300
H1030       H  0.03983764  0.64567545  0.31520697     0.13100
H1031       H  0.12078196  0.58368119  0.35816011     0.13000
H1032       H  0.14906429  0.57985780  0.28556734     0.12000
loop_ 
_geom_bond_atom_site_label_1 
_geom_bond_atom_site_label_2 
_geom_bond_distance 
_geom_bond_site_symmetry_2 
_ccdc_geom_bond_type 
N1            C6   1.355       .  A
N1            C5   1.355       .  A
N1           H33   1.037       .  S
N2            C9   1.352       .  A
N2           C10   1.353       .  A
N3            C8   1.355       .  A
N3            C7   1.356       .  A
N3           H34   1.035       .  S
N4           C11   1.353       .  A
N4           C12   1.353       .  A
C5           C13   1.387       .  A
C5           C21   1.417       .  A
C6           C22   1.417       .  A
C6           C14   1.387       .  A
C7           C15   1.387   1_554  A
C7           C24   1.419       .  A
C8           C23   1.419       .  A
C8           C16   1.388   1_554  A
C9           C21   1.415       .  A
C9           C17   1.386       .  A
C10          C24   1.416       .  A
C10          C18   1.386       .  A
C11          C19   1.386       .  A
C11          C22   1.416       .  A
C12          C20   1.387       .  A
C12          C23   1.417       .  A
C13          C14   1.373       .  A
C13          H25   1.082   1_554  S
C14          H26   1.082   1_554  S
C15          C16   1.375       .  A
C15          H27   1.082       .  S
C16          H28   1.082       .  S
C17          C18   1.376       .  A
C17          H29   1.082       .  S
C18          H30   1.082       .  S
C19          C20   1.376       .  A
C19          H31   1.082       .  S
C20          H32   1.082       .  S
C21         C160   1.481       .  S
C22         C181   1.483       .  S
C23         C256   1.482       .  S
C24          C85   1.484       .  S
N35          C40   1.356   1_565  A
N35         C555   1.354       .  A
N35          H67   1.036       .  S
N36          C43   1.353       .  A
N36          C44   1.352   1_455  A
N37          C42   1.354   1_565  A
N37         C557   1.355       .  A
N37          H68   1.037       .  S
N38          C45   1.354       .  A
N38          C46   1.353   1_455  A
C39         N551   1.355       .  A
C39          C47   1.387       .  A
C39          C55   1.418       .  A
C40          C56   1.418       .  A
C40          C48   1.386   1_556  A
C41         N553   1.354       .  A
C41          C49   1.388       .  A
C41          C58   1.417       .  A
C42          C57   1.416       .  A
C42          C50   1.388       .  A
C43          C55   1.415       .  A
C43          C51   1.386       .  A
C44          C58   1.415       .  A
C44          C52   1.386       .  A
C45          C53   1.386       .  A
C45          C56   1.417       .  A
C46          C54   1.386       .  A
C46          C57   1.415       .  A
C47         C564   1.373       .  A
C47          H59   1.082   1_556  S
C48         C563   1.374   1_545  A
C48          H60   1.082       .  S
C49         C566   1.373       .  A
C49          H61   1.082   1_556  S
C50         C565   1.372   1_545  A
C50          H62   1.082   1_556  S
C51          C52   1.375   1_455  A
C51          H63   1.082       .  S
C52          H64   1.082       .  S
C53          C54   1.376   1_455  A
C53          H65   1.082       .  S
C54          H66   1.082       .  S
C55         C229   1.483       .  S
C56         C112   1.487       .  S
C57         C133   1.481       .  S
C58         C208   1.479       .  S
O69         Mg71   2.156       .  S
O69         Mg77   2.153       .  S
O69         C104   1.238       .  S
C70         H109   1.081       .  S
C70          O83   1.235       .  S
C70         O107   1.268   1_556  A
Mg71        O100   2.151       .  S
Mg71        O115   2.310       .  S
Mg71        O111   2.282       .  S
Mg71         O82   2.294       .  S
O72        Mg114   2.153       .  S
O72         Mg97   2.130   1_554  S
O72          C93   1.238       .  S
O73         C104   1.273       .  A
O73         Mg97   2.307       .  S
C74          O76   1.272       .  A
C74          O88   1.272       .  A
C74         C512   1.433       .  S
O75         C103   1.271       .  A
O75         Mg77   2.293       .  S
O76        Mg108   2.271       .  S
Mg77         O83   2.135       .  S
Mg77         O91   2.251       .  S
Mg77         O79   2.290       .  S
C78         O116   1.269       .  A
C78          O84   1.273       .  A
C78         C484   1.433       .  S
O79          C86   1.272       .  A
H80          C93   1.081       .  S
C81         H106   1.081       .  S
C81          O95   1.238       .  S
C81          O96   1.273       .  A
O82         C105   1.269   1_556  A
O83         Mg97   2.150       .  S
O84        Mg114   2.301       .  S
C85          O98   1.274       .  A
C85          O90   1.278   1_554  A
C86         O113   1.270       .  A
C86         C468   1.430       .  S
Mg87         O94   2.140       .  S
Mg87         O95   2.151       .  S
Mg87         O88   2.291       .  S
Mg87         O89   2.296       .  S
Mg87        O116   2.256       .  S
O89          C93   1.271       .  A
O90         Mg97   2.328       .  S
O91         C110   1.269       .  A
O92         C112   1.279   1_554  A
O92        Mg108   2.335       .  S
O94        Mg108   2.152       .  S
O94         C105   1.236       .  S
O95        Mg114   2.151       .  S
O96        Mg108   2.306       .  S
Mg97        O113   2.263       .  S
O98        Mg114   2.277       .  S
H99         C104   1.081       .  S
O100       Mg108   2.130   1_556  S
O100        C103   1.237       .  S
H101        C103   1.081       .  S
H102        C105   1.081       .  S
O107       Mg114   2.292       .  S
C110        O115   1.274       .  A
C110        C498   1.433       .  S
O111        C112   1.275       .  A
O117       Mg119   2.144       .  S
O117       Mg125   2.150       .  S
O117        C152   1.238       .  S
C118        H157   1.081       .  S
C118        O131   1.235       .  S
C118        O155   1.268   1_554  A
Mg119       O148   2.153       .  S
Mg119       O163   2.310       .  S
Mg119       O159   2.278       .  S
Mg119       O130   2.297       .  S
O120       Mg162   2.156       .  S
O120       Mg145   2.142   1_556  S
O120        C141   1.237       .  S
O121        C152   1.272       .  A
O121       Mg145   2.300       .  S
C122        O124   1.270       .  A
C122        O136   1.272       .  A
C122        C426   1.433       .  S
O123        C151   1.271       .  A
O123       Mg125   2.295       .  S
O124       Mg156   2.266       .  S
Mg125       O131   2.131       .  S
Mg125       O139   2.248       .  S
Mg125       O127   2.288       .  S
C126        O164   1.270       .  A
C126        O132   1.274       .  A
C126        C454   1.436       .  S
O127        C134   1.272       .  A
H128        C141   1.081       .  S
C129        H154   1.081       .  S
C129        O143   1.238       .  S
C129        O144   1.272       .  A
O130        C153   1.270   1_554  A
O131       Mg145   2.153       .  S
O132       Mg162   2.309       .  S
C133        O146   1.274       .  A
C133        O138   1.278   1_556  A
C134        O161   1.273       .  A
C134        C440   1.436       .  S
Mg135       O142   2.142       .  S
Mg135       O143   2.152       .  S
Mg135       O136   2.294       .  S
Mg135       O137   2.297       .  S
Mg135       O164   2.262       .  S
O137        C141   1.271       .  A
O138       Mg145   2.320       .  S
O139        C158   1.269       .  A
O140        C160   1.276   1_556  A
O140       Mg156   2.312       .  S
O142       Mg156   2.155       .  S
O142        C153   1.236       .  S
O143       Mg162   2.151       .  S
O144       Mg156   2.304       .  S
Mg145       O161   2.286       .  S
O146       Mg162   2.273       .  S
H147        C152   1.081       .  S
O148       Mg156   2.133   1_554  S
O148        C151   1.238       .  S
H149        C151   1.081       .  S
H150        C153   1.081       .  S
O155       Mg162   2.290       .  S
C158        O163   1.274       .  A
C158        C412   1.432       .  S
O159        C160   1.273       .  A
O165       Mg167   2.150       .  S
O165       Mg173   2.154       .  S
O165        C200   1.237       .  S
C166        H205   1.081       .  S
C166        O179   1.236       .  S
C166        O203   1.269   1_556  A
Mg167       O196   2.155       .  S
Mg167       O211   2.301       .  S
Mg167       O207   2.278       .  S
Mg167       O178   2.292       .  S
O168       Mg210   2.155       .  S
O168       Mg193   2.141   1_554  S
O168        C189   1.237       .  S
O169        C200   1.271       .  A
O169       Mg193   2.300       .  S
C170        O172   1.270       .  A
C170        O184   1.273       .  A
C170        C398   1.434       .  S
O171        C199   1.271       .  A
O171       Mg173   2.298       .  S
O172       Mg204   2.264       .  S
Mg173       O179   2.138       .  S
Mg173       O187   2.259       .  S
Mg173       O175   2.306       .  S
C174        O212   1.269       .  A
C174        O180   1.274       .  A
C174        C372   1.430       .  S
O175        C182   1.274       .  A
H176        C189   1.081       .  S
C177        H202   1.081       .  S
C177        O191   1.237       .  S
C177        O192   1.271       .  A
O178        C201   1.269   1_556  A
O179       Mg193   2.156       .  S
O180       Mg210   2.306       .  S
C181        O194   1.274       .  A
C181        O186   1.276   1_554  A
C182        O209   1.272       .  A
C182        C356   1.438       .  S
Mg183       O190   2.129       .  S
Mg183       O191   2.154       .  S
Mg183       O184   2.303       .  S
Mg183       O185   2.298       .  S
Mg183       O212   2.246       .  S
O185        C189   1.271       .  A
O186       Mg193   2.312       .  S
O187        C206   1.270       .  A
O188        C208   1.274   1_554  A
O188       Mg204   2.303       .  S
O190       Mg204   2.152       .  S
O190        C201   1.236       .  S
O191       Mg210   2.154       .  S
O192       Mg204   2.302       .  S
Mg193       O209   2.273       .  S
O194       Mg210   2.284       .  S
H195        C200   1.081       .  S
O196       Mg204   2.135   1_556  S
O196        C199   1.237       .  S
H197        C199   1.081       .  S
H198        C201   1.081       .  S
O203       Mg210   2.294       .  S
C206        O211   1.273       .  A
C206        C386   1.433       .  S
O207        C208   1.273       .  A
O213       Mg215   2.148       .  S
O213       Mg221   2.150       .  S
O213        C248   1.239       .  S
C214        H253   1.081       .  S
C214        O227   1.236       .  S
C214        O251   1.269   1_554  A
Mg215       O244   2.150       .  S
Mg215       O259   2.318       .  S
Mg215       O255   2.274       .  S
Mg215       O226   2.298       .  S
O216       Mg258   2.152       .  S
O216       Mg241   2.136   1_556  S
O216        C237   1.238       .  S
O217        C248   1.273       .  A
O217       Mg241   2.305       .  S
C218        O220   1.272       .  A
C218        O232   1.273       .  A
C218        C314   1.436       .  S
O219        C247   1.271       .  A
O219       Mg221   2.297       .  S
O220       Mg252   2.272       .  S
Mg221       O227   2.136       .  S
Mg221       O235   2.263       .  S
Mg221       O223   2.300       .  S
C222        O260   1.270       .  A
C222        O228   1.273       .  A
C222        C342   1.433       .  S
O223        C230   1.273       .  A
H224        C237   1.081       .  S
C225        H250   1.081       .  S
C225        O239   1.237       .  S
C225        O240   1.272       .  A
O226        C249   1.270   1_554  A
O227       Mg241   2.149       .  S
O228       Mg258   2.305       .  S
C229        O242   1.273       .  A
C229        O234   1.278   1_556  A
C230        O257   1.271       .  A
C230        C328   1.434       .  S
Mg231       O238   2.139       .  S
Mg231       O239   2.150       .  S
Mg231       O232   2.301       .  S
Mg231       O233   2.297       .  S
Mg231       O260   2.257       .  S
O233        C237   1.271       .  A
O234       Mg241   2.325       .  S
O235        C254   1.271       .  A
O236        C256   1.277   1_556  A
O236       Mg252   2.321       .  S
O238       Mg252   2.153       .  S
O238        C249   1.236       .  S
O239       Mg258   2.146       .  S
O240       Mg252   2.302       .  S
Mg241       O257   2.269       .  S
O242       Mg258   2.274       .  S
H243        C248   1.081       .  S
O244       Mg252   2.138   1_554  S
O244        C247   1.238       .  S
H245        C247   1.081       .  S
H246        C249   1.081       .  S
O251       Mg258   2.292       .  S
C254        O259   1.275       .  A
C254        C302   1.439       .  S
O255        C256   1.273       .  A
C261        C262   1.410   1_455  A
C261        C266   1.401       .  A
C261        C510   1.444       .  S
C262        C263   1.401       .  A
C262        C442   1.445       .  S
C263        C264   1.401       .  A
C263        H268   1.085       .  S
C264        C265   1.409   1_655  A
C264        C456   1.445       .  S
C265        C266   1.401       .  A
C265        C496   1.443       .  S
C266        H267   1.085       .  S
C269        C270   1.409   1_655  A
C269        C274   1.401       .  A
C269        C400   1.443       .  S
C270        C271   1.400       .  A
C270        C330   1.443       .  S
C271        C272   1.400       .  A
C271        H276   1.085       .  S
C272        C273   1.409   1_455  A
C272        C344   1.442       .  S
C273        C274   1.401       .  A
C273        C384   1.443       .  S
C274        H275   1.085       .  S
C277        C278   1.410       .  A
C277        C282   1.401       .  A
C277        C370   1.440       .  S
C278        C279   1.403       .  A
C278        C300   1.450       .  S
C279        C280   1.404       .  A
C279        H284   1.084       .  S
C280        C281   1.409       .  A
C280        C316   1.445       .  S
C281        C282   1.400       .  A
C281        C358   1.447       .  S
C282        H283   1.085       .  S
C285        C286   1.409       .  A
C285        C290   1.400       .  A
C285        C414   1.441       .  S
C286        C287   1.399       .  A
C286        C482   1.442       .  S
C287        C288   1.399       .  A
C287        H292   1.085       .  S
C288        C289   1.409       .  A
C288        C470   1.440       .  S
C289        C290   1.399       .  A
C289        C428   1.444       .  S
C290        H291   1.085       .  S
C293        C294   1.403       .  A
C293        C298   1.401       .  A
C293        C301   1.444       .  S
C294        C295   1.404       .  A
C294        H303   1.083       .  S
C295        C296   1.404       .  A
C295        H304   1.083       .  S
C296        C297   1.400       .  A
C296        C299   1.445       .  S
C297        C298   1.398       .  A
C297        H305   1.083       .  S
C298        H306   1.084       .  S
C299        C300   1.209       .  T
C301        C302   1.208       .  T
C307        C308   1.400       .  A
C307        C312   1.402       .  A
C307        C315   1.440       .  S
C308        C309   1.399       .  A
C308        H317   1.083       .  S
C309        C310   1.402       .  A
C309        H318   1.083       .  S
C310        C311   1.401       .  A
C310        C313   1.441       .  S
C311        C312   1.399       .  A
C311        H319   1.083       .  S
C312        H320   1.084       .  S
C313        C314   1.207       .  T
C315        C316   1.206       .  T
C321        C322   1.402       .  A
C321        C326   1.400       .  A
C321        C329   1.438       .  S
C322        C323   1.398       .  A
C322        H331   1.083       .  S
C323        C324   1.401       .  A
C323        H332   1.083       .  S
C324        C325   1.402       .  A
C324        C327   1.439       .  S
C325        C326   1.398       .  A
C325        H333   1.083       .  S
C326        H334   1.083       .  S
C327        C328   1.205       .  T
C329        C330   1.205       .  T
C335        C336   1.402       .  A
C335        C340   1.400       .  A
C335        C343   1.437       .  S
C336        C337   1.399       .  A
C336        H345   1.084       .  S
C337        C338   1.401       .  A
C337        H346   1.083       .  S
C338        C339   1.401       .  A
C338        C341   1.438       .  S
C339        C340   1.397       .  A
C339        H347   1.084       .  S
C340        H348   1.084       .  S
C341        C342   1.205       .  T
C343        C344   1.204       .  T
C349        C350   1.401       .  A
C349        C354   1.402       .  A
C349        C357   1.441       .  S
C350        C351   1.399       .  A
C350        H359   1.084       .  S
C351        C352   1.401       .  A
C351        H360   1.083       .  S
C352        C353   1.402       .  A
C352        C355   1.442       .  S
C353        C354   1.401       .  A
C353        H361   1.083       .  S
C354        H362   1.083       .  S
C355        C356   1.207       .  T
C357        C358   1.207       .  T
C363        C364   1.399       .  A
C363        C368   1.402       .  A
C363        C371   1.435       .  S
C364        C365   1.396       .  A
C364        H373   1.083       .  S
C365        C366   1.400       .  A
C365        H374   1.083       .  S
C366        C367   1.400       .  A
C366        C369   1.434       .  S
C367        C368   1.398       .  A
C367        H375   1.083       .  S
C368        H376   1.084       .  S
C369        C370   1.203       .  T
C371        C372   1.203       .  T
C377        C378   1.401       .  A
C377        C382   1.401       .  A
C377        C385   1.438       .  S
C378        C379   1.397       .  A
C378        H387   1.084       .  S
C379        C380   1.400       .  A
C379        H388   1.083       .  S
C380        C381   1.402       .  A
C380        C383   1.438       .  S
C381        C382   1.399       .  A
C381        H389   1.083       .  S
C382        H390   1.083       .  S
C383        C384   1.205       .  T
C385        C386   1.205       .  T
C391        C392   1.402       .  A
C391        C396   1.400       .  A
C391        C399   1.437       .  S
C392        C393   1.400       .  A
C392        H401   1.083       .  S
C393        C394   1.402       .  A
C393        H402   1.083       .  S
C394        C395   1.400       .  A
C394        C397   1.439       .  S
C395        C396   1.397       .  A
C395        H403   1.083       .  S
C396        H404   1.083       .  S
C397        C398   1.205       .  T
C399        C400   1.205       .  T
C405        C406   1.402       .  A
C405        C410   1.399       .  A
C405        C413   1.436       .  S
C406        C407   1.399       .  A
C406        H415   1.084       .  S
C407        C408   1.401       .  A
C407        H416   1.083       .  S
C408        C409   1.401       .  A
C408        C411   1.437       .  S
C409        C410   1.396       .  A
C409        H417   1.084       .  S
C410        H418   1.084       .  S
C411        C412   1.204       .  T
C413        C414   1.204       .  T
C419        C420   1.402       .  A
C419        C424   1.400       .  A
C419        C427   1.438       .  S
C420        C421   1.399       .  A
C420        H429   1.083       .  S
C421        C422   1.401       .  A
C421        H430   1.083       .  S
C422        C423   1.401       .  A
C422        C425   1.438       .  S
C423        C424   1.398       .  A
C423        H431   1.084       .  S
C424        H432   1.083       .  S
C425        C426   1.205       .  T
C427        C428   1.205       .  T
C433        C434   1.401       .  A
C433        C438   1.401       .  A
C433        C441   1.440       .  S
C434        C435   1.398       .  A
C434        H443   1.084       .  S
C435        C436   1.400       .  A
C435        H444   1.083       .  S
C436        C437   1.403       .  A
C436        C439   1.441       .  S
C437        C438   1.400       .  A
C437        H445   1.083       .  S
C438        H446   1.083       .  S
C439        C440   1.207       .  T
C441        C442   1.206       .  T
C447        C448   1.401       .  A
C447        C452   1.402       .  A
C447        C455   1.439       .  S
C448        C449   1.399       .  A
C448        H457   1.083       .  S
C449        C450   1.401       .  A
C449        H458   1.083       .  S
C450        C451   1.402       .  A
C450        C453   1.441       .  S
C451        C452   1.399       .  A
C451        H459   1.083       .  S
C452        H460   1.084       .  S
C453        C454   1.207       .  T
C455        C456   1.206       .  T
C461        C462   1.400       .  A
C461        C466   1.401       .  A
C461        C469   1.435       .  S
C462        C463   1.398       .  A
C462        H471   1.083       .  S
C463        C464   1.402       .  A
C463        H472   1.084       .  S
C464        C465   1.400       .  A
C464        C467   1.435       .  S
C465        C466   1.397       .  A
C465        H473   1.084       .  S
C466        H474   1.083       .  S
C467        C468   1.203       .  T
C469        C470   1.203       .  T
C475        C476   1.401       .  A
C475        C480   1.401       .  A
C475        C483   1.438       .  S
C476        C477   1.398       .  A
C476        H485   1.084       .  S
C477        C478   1.400       .  A
C477        H486   1.083       .  S
C478        C479   1.401       .  A
C478        C481   1.437       .  S
C479        C480   1.399       .  A
C479        H487   1.084       .  S
C480        H488   1.083       .  S
C481        C482   1.204       .  T
C483        C484   1.205       .  T
C489        C490   1.402       .  A
C489        C494   1.401       .  A
C489        C497   1.438       .  S
C490        C491   1.398       .  A
C490        H499   1.084       .  S
C491        C492   1.400       .  A
C491        H500   1.083       .  S
C492        C493   1.402       .  A
C492        C495   1.438       .  S
C493        C494   1.399       .  A
C493        H501   1.083       .  S
C494        H502   1.083       .  S
C495        C496   1.205       .  T
C497        C498   1.205       .  T
C503        C504   1.402       .  A
C503        C508   1.400       .  A
C503        C511   1.438       .  S
C504        C505   1.399       .  A
C504        H513   1.084       .  S
C505        C506   1.401       .  A
C505        H514   1.083       .  S
C506        C507   1.401       .  A
C506        C509   1.438       .  S
C507        C508   1.397       .  A
C507        H515   1.082       .  S
C508        H516   1.084       .  S
C509        C510   1.205       .  T
C511        C512   1.205       .  T
N517        C522   1.354       .  A
N517        C521   1.356       .  A
N517        H549   1.037       .  S
N518        C525   1.352       .  A
N518        C526   1.351       .  A
N519        C524   1.355       .  A
N519        C523   1.354       .  A
N519        H550   1.036       .  S
N520        C527   1.352       .  A
N520        C528   1.354       .  A
C521        C529   1.386       .  A
C521        C537   1.417       .  A
C522        C538   1.419       .  A
C522        C530   1.388       .  A
C523        C531   1.388   1_554  A
C523        C540   1.418       .  A
C524        C539   1.418       .  A
C524        C532   1.387   1_554  A
C525        C537   1.412       .  A
C525        C533   1.386       .  A
C526        C540   1.414       .  A
C526        C534   1.387       .  A
C527        C535   1.386       .  A
C527        C538   1.416       .  A
C528        C536   1.386       .  A
C528        C539   1.417       .  A
C529        C530   1.374       .  A
C529        H541   1.082       .  S
C530        H542   1.081       .  S
C531        C532   1.375       .  A
C531        H543   1.082       .  S
C532        H544   1.082       .  S
C533        C534   1.375       .  A
C533        H545   1.082       .  S
C534        H546   1.082       .  S
C535        C536   1.376       .  A
C535        H547   1.082       .  S
C536        H548   1.082       .  S
C537        C676   1.483       .  S
C538        C697   1.481       .  S
C539        C772   1.485       .  S
C540        C601   1.477       .  S
N551        C556   1.354       .  A
N551        H583   1.035       .  S
N552        C559   1.353   1_655  A
N552        C560   1.354       .  A
N553        C558   1.355       .  A
N553        H584   1.037       .  S
N554        C561   1.353       .  A
N554        C562   1.354   1_455  A
C555        C563   1.389   1_556  A
C555        C571   1.419       .  A
C556        C572   1.418       .  A
C556        C564   1.388       .  A
C557        C565   1.387       .  A
C557        C574   1.417       .  A
C558        C573   1.417       .  A
C558        C566   1.387       .  A
C559        C571   1.418       .  A
C559        C567   1.387       .  A
C560        C574   1.417       .  A
C560        C568   1.386       .  A
C561        C569   1.387       .  A
C561        C572   1.417       .  A
C562        C570   1.386       .  A
C562        C573   1.416       .  A
C563        H575   1.082       .  S
C564        H576   1.082   1_556  S
C565        H577   1.082   1_556  S
C566        H578   1.082   1_556  S
C567        C568   1.377   1_455  A
C567        H579   1.082       .  S
C568        H580   1.082       .  S
C569        C570   1.376   1_455  A
C569        H581   1.082       .  S
C570        H582   1.082       .  S
C571        C745   1.483       .  S
C572        C628   1.480       .  S
C573        C649   1.483       .  S
C574        C724   1.484       .  S
O585       Mg587   2.152       .  S
O585       Mg593   2.151       .  S
O585        C620   1.238       .  S
C586        H625   1.081       .  S
C586        O599   1.235       .  S
C586        O623   1.269   1_556  A
Mg587       O616   2.153       .  S
Mg587       O631   2.307       .  S
Mg587       O627   2.271       .  S
Mg587       O598   2.293       .  S
O588       Mg630   2.153       .  S
O588       Mg613   2.137   1_554  S
O588        C609   1.238       .  S
O589        C620   1.273       .  A
O589       Mg613   2.308       .  S
C590        O592   1.272       .  A
C590        O604   1.273       .  A
C590       C1028   1.435       .  S
O591        C619   1.270       .  A
O591       Mg593   2.295       .  S
O592       Mg624   2.271       .  S
Mg593       O599   2.135       .  S
Mg593       O607   2.257       .  S
Mg593       O595   2.297       .  S
C594        O632   1.270       .  A
C594        O600   1.272       .  A
C594       C1000   1.435       .  S
O595        C602   1.273       .  A
H596        C609   1.081       .  S
C597        H622   1.081       .  S
C597        O611   1.237       .  S
C597        O612   1.271       .  A
O598        C621   1.269   1_556  A
O599       Mg613   2.148       .  S
O600       Mg630   2.302       .  S
C601        O614   1.270       .  A
C601        O606   1.278   1_554  A
C602        O629   1.271       .  A
C602        C984   1.433       .  S
Mg603       O610   2.135       .  S
Mg603       O611   2.148       .  S
Mg603       O604   2.296       .  S
Mg603       O605   2.298       .  S
Mg603       O632   2.262       .  S
O605        C609   1.271       .  A
O606       Mg613   2.328       .  S
O607        C626   1.270       .  A
O608        C628   1.276   1_554  A
O608       Mg624   2.315       .  S
O610       Mg624   2.155       .  S
O610        C621   1.236       .  S
O611       Mg630   2.137       .  S
O612       Mg624   2.298       .  S
Mg613       O629   2.267       .  S
O614       Mg630   2.251       .  S
H615        C620   1.081       .  S
O616       Mg624   2.137   1_556  S
O616        C619   1.237       .  S
H617        C619   1.081       .  S
H618        C621   1.081       .  S
O623       Mg630   2.296       .  S
C626        O631   1.273       .  A
C626       C1014   1.434       .  S
O627        C628   1.273       .  A
O633       Mg635   2.143       .  S
O633       Mg641   2.153       .  S
O633        C668   1.238       .  S
C634        H673   1.081       .  S
C634        O647   1.235       .  S
C634        O671   1.269   1_554  A
Mg635       O664   2.152       .  S
Mg635       O679   2.306       .  S
Mg635       O675   2.274       .  S
Mg635       O646   2.295       .  S
O636       Mg678   2.156       .  S
O636       Mg661   2.138   1_556  S
O636        C657   1.237       .  S
O637        C668   1.272       .  A
O637       Mg661   2.299       .  S
C638        O640   1.272       .  A
C638        O652   1.272       .  A
C638        C942   1.434       .  S
O639        C667   1.270       .  A
O639       Mg641   2.291       .  S
O640       Mg672   2.275       .  S
Mg641       O647   2.132       .  S
Mg641       O655   2.248       .  S
Mg641       O643   2.282       .  S
C642        O680   1.269       .  A
C642        O648   1.275       .  A
C642        C970   1.436       .  S
O643        C650   1.271       .  A
H644        C657   1.081       .  S
C645        H670   1.081       .  S
C645        O659   1.239       .  S
C645        O660   1.273       .  A
O646        C669   1.270   1_554  A
O647       Mg661   2.153       .  S
O648       Mg678   2.318       .  S
C649        O662   1.276       .  A
C649        O654   1.276   1_556  A
C650        O677   1.271       .  A
C650        C956   1.432       .  S
Mg651       O658   2.140       .  S
Mg651       O659   2.150       .  S
Mg651       O652   2.289       .  S
Mg651       O653   2.296       .  S
Mg651       O680   2.255       .  S
O653        C657   1.271       .  A
O654       Mg661   2.311       .  S
O655        C674   1.269       .  A
O656        C676   1.278   1_556  A
O656       Mg672   2.328       .  S
O658       Mg672   2.152       .  S
O658        C669   1.236       .  S
O659       Mg678   2.154       .  S
O660       Mg672   2.308       .  S
Mg661       O677   2.274       .  S
O662       Mg678   2.289       .  S
H663        C668   1.081       .  S
O664       Mg672   2.128   1_554  S
O664        C667   1.237       .  S
H665        C667   1.081       .  S
H666        C669   1.081       .  S
O671       Mg678   2.291       .  S
C674        O679   1.274       .  A
C674        C928   1.431       .  S
O675        C676   1.273       .  A
O681       Mg683   2.154       .  S
O681       Mg689   2.157       .  S
O681        C716   1.238       .  S
C682        H721   1.081       .  S
C682        O695   1.236       .  S
C682        O719   1.269   1_556  A
Mg683       O712   2.153       .  S
Mg683       O727   2.307       .  S
Mg683       O723   2.292       .  S
Mg683       O694   2.294       .  S
O684       Mg726   2.154       .  S
O684       Mg709   2.137   1_554  S
O684        C705   1.237       .  S
O685        C716   1.272       .  A
O685       Mg709   2.304       .  S
C686        O688   1.271       .  A
C686        O700   1.273       .  A
C686        C914   1.436       .  S
O687        C715   1.270       .  A
O687       Mg689   2.293       .  S
O688       Mg720   2.268       .  S
Mg689       O695   2.139       .  S
Mg689       O703   2.258       .  S
Mg689       O691   2.292       .  S
C690        O728   1.271       .  A
C690        O696   1.274       .  A
C690        C888   1.435       .  S
O691        C698   1.272       .  A
H692        C705   1.081       .  S
C693        H718   1.081       .  S
C693        O707   1.237       .  S
C693        O708   1.271       .  A
O694        C717   1.270   1_556  A
O695       Mg709   2.154       .  S
O696       Mg726   2.307       .  S
C697        O710   1.274       .  A
C697        O702   1.276   1_554  A
C698        O725   1.271       .  A
C698        C872   1.433       .  S
Mg699       O706   2.143       .  S
Mg699       O707   2.153       .  S
Mg699       O700   2.301       .  S
Mg699       O701   2.298       .  S
Mg699       O728   2.264       .  S
O701        C705   1.271       .  A
O702       Mg709   2.313       .  S
O703        C722   1.270       .  A
O704        C724   1.275   1_554  A
O704       Mg720   2.306       .  S
O706       Mg720   2.159       .  S
O706        C717   1.236       .  S
O707       Mg726   2.146       .  S
O708       Mg720   2.299       .  S
Mg709       O725   2.271       .  S
O710       Mg726   2.278       .  S
H711        C716   1.081       .  S
O712       Mg720   2.133   1_556  S
O712        C715   1.236       .  S
H713        C715   1.081       .  S
H714        C717   1.081       .  S
O719       Mg726   2.294       .  S
C722        O727   1.274       .  A
C722        C902   1.433       .  S
O723        C724   1.275       .  A
O729       Mg731   2.153       .  S
O729       Mg737   2.153       .  S
O729        C764   1.238       .  S
C730        H769   1.081       .  S
C730        O743   1.236       .  S
C730        O767   1.270   1_554  A
Mg731       O760   2.152       .  S
Mg731       O775   2.312       .  S
Mg731       O771   2.286       .  S
Mg731       O742   2.296       .  S
O732       Mg774   2.154       .  S
O732       Mg757   2.141   1_556  S
O732        C753   1.237       .  S
O733        C764   1.272       .  A
O733       Mg757   2.304       .  S
C734        O736   1.272       .  A
C734        O748   1.273       .  A
C734        C830   1.437       .  S
O735        C763   1.271       .  A
O735       Mg737   2.297       .  S
O736       Mg768   2.277       .  S
Mg737       O743   2.145       .  S
Mg737       O751   2.266       .  S
Mg737       O739   2.300       .  S
C738        O776   1.270       .  A
C738        O744   1.275       .  A
C738        C858   1.438       .  S
O739        C746   1.273       .  A
H740        C753   1.081       .  S
C741        H766   1.081       .  S
C741        O755   1.238       .  S
C741        O756   1.272       .  A
O742        C765   1.270   1_554  A
O743       Mg757   2.155       .  S
O744       Mg774   2.312       .  S
C745        O758   1.273       .  A
C745        O750   1.276   1_556  A
C746        O773   1.271       .  A
C746        C844   1.434       .  S
Mg747       O754   2.145       .  S
Mg747       O755   2.154       .  S
Mg747       O748   2.297       .  S
Mg747       O749   2.298       .  S
Mg747       O776   2.265       .  S
O749        C753   1.271       .  A
O750       Mg757   2.318       .  S
O751        C770   1.271       .  A
O752        C772   1.277   1_556  A
O752       Mg768   2.321       .  S
O754       Mg768   2.156       .  S
O754        C765   1.236       .  S
O755       Mg774   2.149       .  S
O756       Mg768   2.304       .  S
Mg757       O773   2.267       .  S
O758       Mg774   2.280       .  S
H759        C764   1.081       .  S
O760       Mg768   2.142   1_554  S
O760        C763   1.237       .  S
H761        C763   1.081       .  S
H762        C765   1.081       .  S
O767       Mg774   2.298       .  S
C770        O775   1.275       .  A
C770        C818   1.437       .  S
O771        C772   1.274       .  A
C777        C778   1.409   1_455  A
C777        C782   1.401       .  A
C777       C1026   1.445       .  S
C778        C779   1.400       .  A
C778        C958   1.442       .  S
C779        C780   1.400       .  A
C779        H784   1.085       .  S
C780        C781   1.409   1_655  A
C780        C972   1.444       .  S
C781        C782   1.402       .  A
C781       C1012   1.443       .  S
C782        H783   1.085       .  S
C785        C786   1.408   1_655  A
C785        C790   1.401       .  A
C785        C916   1.447       .  S
C786        C787   1.401       .  A
C786        C846   1.442       .  S
C787        C788   1.401       .  A
C787        H792   1.085       .  S
C788        C789   1.410   1_455  A
C788        C860   1.447       .  S
C789        C790   1.403       .  A
C789        C900   1.442       .  S
C790        H791   1.085       .  S
C793        C794   1.409       .  A
C793        C798   1.400       .  A
C793        C886   1.444       .  S
C794        C795   1.403       .  A
C794        C816   1.445       .  S
C795        C796   1.402       .  A
C795        H800   1.085       .  S
C796        C797   1.409       .  A
C796        C832   1.446       .  S
C797        C798   1.400       .  A
C797        C874   1.443       .  S
C798        H799   1.085       .  S
C801        C802   1.409       .  A
C801        C806   1.400       .  A
C801        C930   1.440       .  S
C802        C803   1.400       .  A
C802        C998   1.445       .  S
C803        C804   1.400       .  A
C803        H808   1.085       .  S
C804        C805   1.409       .  A
C804        C986   1.441       .  S
C805        C806   1.399       .  A
C805        C944   1.444       .  S
C806        H807   1.085       .  S
C809        C810   1.402       .  A
C809        C814   1.402       .  A
C809        C817   1.441       .  S
C810        C811   1.399       .  A
C810        H819   1.083       .  S
C811        C812   1.400       .  A
C811        H820   1.083       .  S
C812        C813   1.402       .  A
C812        C815   1.439       .  S
C813        C814   1.399       .  A
C813        H821   1.084       .  S
C814        H822   1.083       .  S
C815        C816   1.206       .  T
C817        C818   1.207       .  T
C823        C824   1.403       .  A
C823        C828   1.400       .  A
C823        C831   1.441       .  S
C824        C825   1.400       .  A
C824        H833   1.084       .  S
C825        C826   1.401       .  A
C825        H834   1.083       .  S
C826        C827   1.402       .  A
C826        C829   1.441       .  S
C827        C828   1.399       .  A
C827        H835   1.084       .  S
C828        H836   1.083       .  S
C829        C830   1.207       .  T
C831        C832   1.207       .  T
C837        C838   1.400       .  A
C837        C842   1.401       .  A
C837        C845   1.436       .  S
C838        C839   1.398       .  A
C838        H847   1.083       .  S
C839        C840   1.402       .  A
C839        H848   1.083       .  S
C840        C841   1.401       .  A
C840        C843   1.438       .  S
C841        C842   1.397       .  A
C841        H849   1.083       .  S
C842        H850   1.084       .  S
C843        C844   1.205       .  T
C845        C846   1.204       .  T
C851        C852   1.402       .  A
C851        C856   1.402       .  A
C851        C859   1.442       .  S
C852        C853   1.400       .  A
C852        H861   1.083       .  S
C853        C854   1.402       .  A
C853        H862   1.083       .  S
C854        C855   1.402       .  A
C854        C857   1.443       .  S
C855        C856   1.400       .  A
C855        H863   1.083       .  S
C856        H864   1.084       .  S
C857        C858   1.208       .  T
C859        C860   1.207       .  T
C865        C866   1.400       .  A
C865        C870   1.401       .  A
C865        C873   1.437       .  S
C866        C867   1.396       .  A
C866        H875   1.084       .  S
C867        C868   1.400       .  A
C867        H876   1.083       .  S
C868        C869   1.402       .  A
C868        C871   1.438       .  S
C869        C870   1.400       .  A
C869        H877   1.083       .  S
C870        H878   1.083       .  S
C871        C872   1.205       .  T
C873        C874   1.204       .  T
C879        C880   1.402       .  A
C879        C884   1.401       .  A
C879        C887   1.440       .  S
C880        C881   1.398       .  A
C880        H889   1.084       .  S
C881        C882   1.400       .  A
C881        H890   1.083       .  S
C882        C883   1.402       .  A
C882        C885   1.438       .  S
C883        C884   1.399       .  A
C883        H891   1.084       .  S
C884        H892   1.083       .  S
C885        C886   1.205       .  T
C887        C888   1.206       .  T
C893        C894   1.401       .  A
C893        C898   1.401       .  A
C893        C901   1.438       .  S
C894        C895   1.397       .  A
C894        H903   1.084       .  S
C895        C896   1.400       .  A
C895        H904   1.083       .  S
C896        C897   1.402       .  A
C896        C899   1.437       .  S
C897        C898   1.399       .  A
C897        H905   1.084       .  S
C898        H906   1.083       .  S
C899        C900   1.205       .  T
C901        C902   1.205       .  T
C907        C908   1.400       .  A
C907        C912   1.403       .  A
C907        C915   1.441       .  S
C908        C909   1.398       .  A
C908        H917   1.083       .  S
C909        C910   1.401       .  A
C909        H918   1.084       .  S
C910        C911   1.402       .  A
C910        C913   1.441       .  S
C911        C912   1.401       .  A
C911        H919   1.083       .  S
C912        H920   1.084       .  S
C913        C914   1.206       .  T
C915        C916   1.207       .  T
C921        C922   1.401       .  A
C921        C926   1.400       .  A
C921        C929   1.434       .  S
C922        C923   1.396       .  A
C922        H931   1.083       .  S
C923        C924   1.400       .  A
C923        H932   1.084       .  S
C924        C925   1.402       .  A
C924        C927   1.435       .  S
C925        C926   1.398       .  A
C925        H933   1.083       .  S
C926        H934   1.083       .  S
C927        C928   1.203       .  T
C929        C930   1.203       .  T
C935        C936   1.402       .  A
C935        C940   1.401       .  A
C935        C943   1.439       .  S
C936        C937   1.398       .  A
C936        H945   1.083       .  S
C937        C938   1.400       .  A
C937        H946   1.083       .  S
C938        C939   1.402       .  A
C938        C941   1.439       .  S
C939        C940   1.399       .  A
C939        H947   1.084       .  S
C940        H948   1.083       .  S
C941        C942   1.205       .  T
C943        C944   1.205       .  T
C949        C950   1.400       .  A
C949        C954   1.401       .  A
C949        C957   1.437       .  S
C950        C951   1.398       .  A
C950        H959   1.083       .  S
C951        C952   1.402       .  A
C951        H960   1.084       .  S
C952        C953   1.400       .  A
C952        C955   1.438       .  S
C953        C954   1.398       .  A
C953        H961   1.083       .  S
C954        H962   1.083       .  S
C955        C956   1.205       .  T
C957        C958   1.204       .  T
C963        C964   1.400       .  A
C963        C968   1.402       .  A
C963        C971   1.439       .  S
C964        C965   1.398       .  A
C964        H973   1.084       .  S
C965        C966   1.401       .  A
C965        H974   1.084       .  S
C966        C967   1.402       .  A
C966        C969   1.440       .  S
C967        C968   1.400       .  A
C967        H975   1.083       .  S
C968        H976   1.084       .  S
C969        C970   1.206       .  T
C971        C972   1.205       .  T
C977        C978   1.400       .  A
C977        C982   1.401       .  A
C977        C985   1.435       .  S
C978        C979   1.398       .  A
C978        H987   1.083       .  S
C979        C980   1.402       .  A
C979        H988   1.083       .  S
C980        C981   1.400       .  A
C980        C983   1.437       .  S
C981        C982   1.397       .  A
C981        H989   1.083       .  S
C982        H990   1.084       .  S
C983        C984   1.204       .  T
C985        C986   1.203       .  T
C991        C992   1.401       .  A
C991        C996   1.401       .  A
C991        C999   1.440       .  S
C992        C993   1.399       .  A
C992       H1001   1.083       .  S
C993        C994   1.401       .  A
C993       H1002   1.083       .  S
C994        C995   1.401       .  A
C994        C997   1.440       .  S
C995        C996   1.399       .  A
C995       H1003   1.083       .  S
C996       H1004   1.083       .  S
C997        C998   1.206       .  T
C999       C1000   1.206       .  T
C1005      C1006   1.401       .  A
C1005      C1010   1.401       .  A
C1005      C1013   1.439       .  S
C1006      C1007   1.399       .  A
C1006      H1015   1.083       .  S
C1007      C1008   1.402       .  A
C1007      H1016   1.083       .  S
C1008      C1009   1.400       .  A
C1008      C1011   1.438       .  S
C1009      C1010   1.398       .  A
C1009      H1017   1.083       .  S
C1010      H1018   1.084       .  S
C1011      C1012   1.205       .  T
C1013      C1014   1.205       .  T
C1019      C1020   1.401       .  A
C1019      C1024   1.402       .  A
C1019      C1027   1.440       .  S
C1020      C1021   1.399       .  A
C1020      H1029   1.083       .  S
C1021      C1022   1.402       .  A
C1021      H1030   1.084       .  S
C1022      C1023   1.401       .  A
C1022      C1025   1.439       .  S
C1023      C1024   1.399       .  A
C1023      H1031   1.083       .  S
C1024      H1032   1.083       .  S
C1025      C1026   1.206       .  T
C1027      C1028   1.206       .  T
