geometry optimzed in LAMMPS
_audit_creation_date              2020-11-30 
_audit_creation_method            'lammps2cif' 
_symmetry_space_group_name_H-M    'P1' 
_symmetry_Int_Tables_number       1 
_symmetry_cell_setting            triclinic 
loop_ 
_symmetry_equiv_pos_as_xyz 
  x,y,z 
_cell_length_a                    31.71094524 
_cell_length_b                    32.11799699136576 
_cell_length_c                    30.36633921193559 
_cell_angle_alpha                 89.59841043178558 
_cell_angle_beta                  90.00698468243142 
_cell_angle_gamma                 89.05969785517419 
loop_ 
_atom_site_label 
_atom_site_type_symbol 
_atom_site_fract_x 
_atom_site_fract_y 
_atom_site_fract_z 
_atom_site_charge 
O1          O  0.46746479  0.39910497  0.46471769    -0.80000
O2          O  0.53823981  0.55614569  0.43721755    -0.80000
O3          O  0.40391626  0.53461438  0.48187401    -0.80000
O4          O  0.58104252  0.46282806  0.48105702    -0.80000
O5          O  0.45353346  0.54792337  0.43496185    -0.80100
O6          O  0.52597935  0.45578338  0.43719372    -0.80000
O7          O  0.58631822  0.54648279  0.48810876    -0.80000
O8          O  0.42922388  0.45673612  0.45786469    -0.80100
C9          C  0.43629836  0.41812685  0.44755607     1.09700
C10         C  0.57600585  0.55887216  0.44965927     1.09600
C11         C  0.41499077  0.54820260  0.44452282     1.09700
C12         C  0.56542768  0.45260993  0.44387398     1.09600
O13         O  0.53238649  0.41301072  0.51901285    -0.80000
O14         O  0.44842219  0.58490694  0.52403234    -0.80100
O15         O  0.39044094  0.46763468  0.53594366    -0.80000
O16         O  0.54459420  0.54428841  0.57239035    -0.80000
O17         O  0.53283347  0.59439402  0.52379397    -0.80100
O18         O  0.45131744  0.43377395  0.54417931    -0.80000
O19         O  0.54436541  0.45803172  0.56999521    -0.80000
O20         O  0.44089419  0.52952684  0.56707537    -0.80100
Co21       Co  0.48847100  0.44878963  0.48866390     1.51500
Co22       Co  0.49332305  0.56702090  0.48031575     1.51700
Co23       Co  0.43988287  0.49274037  0.51485377     1.51600
Co24       Co  0.55997346  0.50289267  0.52758839     1.51500
O25         O  0.50022858  0.50800425  0.50368390    -1.42000
C26         C  0.54705543  0.42089161  0.55663035     1.09600
C27         C  0.43742746  0.56859275  0.56064823     1.09700
C28         C  0.41147248  0.43791118  0.55336992     1.09600
C29         C  0.54596163  0.58238696  0.56160482     1.09600
O30         O  0.95052933  0.41208160  0.95923126    -0.80000
O31         O  0.03699411  0.57283641  0.94107721    -0.80000
O32         O  0.94328587  0.54678187  0.91485423    -0.80000
O33         O  0.04562493  0.47918335  0.92101155    -0.80000
O34         O  0.95535566  0.59370240  0.96401797    -0.80100
O35         O  0.03553304  0.42233802  0.96094848    -0.80000
O36         O  0.09598951  0.53945730  0.95666770    -0.80000
O37         O  0.93756085  0.46269302  0.91174213    -0.80100
C38         C  0.93801466  0.42431661  0.92129978     1.09700
C39         C  0.07769962  0.56991505  0.93767941     1.09600
C40         C  0.94074601  0.58403536  0.92685208     1.09700
C41         C  0.05058759  0.44025676  0.92673710     1.09600
O42         O  0.02831067  0.45620960  0.05055317    -0.80000
O43         O  0.96171139  0.55054323  0.04651640    -0.80100
O44         O  0.89567486  0.46150214  0.99597461    -0.80000
O45         O  0.05289179  0.54683690  0.03320426    -0.80000
O46         O  0.02040868  0.60683577  0.02016785    -0.80100
O47         O  0.94385673  0.44925275  0.04646105    -0.80000
O48         O  0.07972598  0.47027587  0.00670703    -0.80000
O49         O  0.90561606  0.54595094  0.00391588    -0.80100
Co50       Co  0.98945838  0.43874500  0.00384621     1.51500
Co51       Co  0.99853552  0.55760323  0.99529303     1.51700
Co52       Co  0.92445084  0.50427872  0.95724249     1.51600
Co53       Co  0.04509315  0.51369472  0.97429249     1.51500
O54         O  0.98421640  0.49801616  0.98115333    -1.42000
C55         C  0.06704725  0.45380699  0.04209176     1.09600
C56         C  0.92280518  0.55670293  0.04011199     1.09700
C57         C  0.90602556  0.44807027  0.03399215     1.09600
C58         C  0.04764049  0.58597257  0.04175214     1.09600
C59         C  0.74691513  0.23714263  0.74294383    -0.02400
O60         O  0.46174058  0.06179177  0.97524889    -0.80000
O61         O  0.49805381  0.90674691  0.07056469    -0.80000
O62         O  0.44529595  0.96485856  0.97779955    -0.80000
O63         O  0.44586978  0.03876949  0.07671331    -0.80000
O64         O  0.49038566  0.91211171  0.98265746    -0.80100
O65         O  0.48765539  0.08776591  0.05532833    -0.80000
O66         O  0.45044104  0.95544988  0.08429493    -0.80000
O67         O  0.46562518  0.02261633  0.91574642    -0.80100
C68         C  0.44840250  0.05249092  0.93609062     1.09700
C69         C  0.46119536  0.91755549  0.08332434     1.09600
C70         C  0.45377198  0.92648158  0.97255876     1.09700
C71         C  0.45228622  0.07692995  0.07033480     1.09600
O72         O  0.57023588  0.05131843  0.04833797    -0.80000
O73         O  0.57316432  0.95292227  0.97662440    -0.80100
O74         O  0.54262005  0.04153954  0.94760652    -0.80000
O75         O  0.53492334  0.95792529  0.12102901    -0.80000
O76         O  0.57804809  0.95139844  0.06548429    -0.80100
O77         O  0.53686457  0.10128855  0.98358529    -0.80000
O78         O  0.53303191  0.04392570  0.10931467    -0.80000
O79         O  0.52213200  0.96166547  0.92994417    -0.80100
Co80       Co  0.51854246  0.05202989  0.01151742     1.51500
Co81       Co  0.53467550  0.93450438  0.02402728     1.51700
Co82       Co  0.49204688  0.00362746  0.96754084     1.51600
Co83       Co  0.49159144  0.99898737  0.09389588     1.51500
O84         O  0.50966676  0.99271809  0.02979090    -1.42000
C85         C  0.56544957  0.05762697  0.08929820     1.09600
C86         C  0.55936501  0.94957307  0.93801278     1.09700
C87         C  0.55184091  0.08051483  0.95178886     1.09600
C88         C  0.56975874  0.94431577  0.10514377     1.09600
C89         C  0.26955367  0.76291869  0.75939966    -0.02400
O90         O  0.97872361  0.05369953  0.55890542    -0.80000
O91         O  0.05465502  0.96064974  0.57040080    -0.80000
O92         O  0.92108899  0.95626942  0.51690990    -0.80000
O93         O  0.07343628  0.05079454  0.54054885    -0.80000
O94         O  0.96924047  0.95078651  0.56865681    -0.80100
O95         O  0.03711235  0.10844938  0.52560281    -0.80000
O96         O  0.10357060  0.97292574  0.52259236    -0.80000
O97         O  0.92344399  0.04003975  0.51749007    -0.80100
C98         C  0.93905745  0.05357598  0.55348893     1.09700
C99         C  0.09322691  0.95985829  0.56063405     1.09600
C100        C  0.93144230  0.94710444  0.55625114     1.09700
C101        C  0.06710616  0.09026247  0.54602193     1.09600
O102        O  0.05027503  0.06652317  0.44891491    -0.80000
O103        O  0.97612052  0.90787373  0.48570264    -0.80100
O104        O  0.96075833  0.03832430  0.42807543    -0.80000
O105        O  0.06456076  0.97272035  0.43713335    -0.80000
O106        O  0.06028967  0.91967321  0.48347445    -0.80100
O107        O  0.96934612  0.08910400  0.47311627    -0.80000
O108        O  0.11319359  0.03822906  0.46261026    -0.80000
O109        O  0.96363530  0.95372095  0.43282162    -0.80100
Co110      Co  0.01511342  0.05688153  0.50639217     1.51500
Co111      Co  0.01483806  0.93856524  0.52645497     1.51700
Co112      Co  0.94613811  0.99727545  0.47416000     1.51600
Co113      Co  0.06515235  0.01185760  0.48674529     1.51500
O114        O  0.00542862  0.99577780  0.49898710    -1.42000
C115        C  0.09025071  0.06360025  0.44061689     1.09600
C116        C  0.96340334  0.91673268  0.44692566     1.09700
C117        C  0.95417084  0.07596583  0.43728797     1.09600
C118        C  0.07043711  0.93437490  0.44577119     1.09600
C119        C  0.77094637  0.73935111  0.26294709    -0.02400
C120        C  0.24556582  0.26070957  0.23746133    -0.02400
C121        C  0.75305992  0.26365292  0.25364968    -0.02400
C122        C  0.24452964  0.74274251  0.24504727    -0.02400
C123        C  0.25079143  0.24583918  0.76239464    -0.02400
C124        C  0.74204841  0.76440077  0.74367624    -0.02400
C125        C  0.22050059  0.21807616  0.73433093    -0.11900
C126        C  0.17506850  0.21966860  0.73317446     0.03600
C127        C  0.15339619  0.19869462  0.70020708    -0.12400
C128        C  0.17432350  0.17350910  0.66990210     0.18500
C129        C  0.21808251  0.16787191  0.67323248    -0.09400
C130        C  0.24046701  0.18931922  0.70532297    -0.02400
H131        H  0.11924567  0.20084086  0.69898015     0.05000
C132        C  0.14886997  0.15160071  0.63695637     0.20500
H133        H  0.27447217  0.18562049  0.70564917     0.10200
C134        C  0.13221456  0.17387034  0.60087590    -0.15800
C135        C  0.10513039  0.15481629  0.57095126     0.03200
C136        C  0.09403584  0.11276987  0.57735241    -0.11100
C137        C  0.11109065  0.09064638  0.61347737    -0.01100
C138        C  0.13796696  0.10978217  0.64331060    -0.06300
H139        H  0.14034976  0.20620952  0.59603262     0.06200
H140        H  0.10306773  0.05837751  0.61890610     0.09600
Br141      Br  0.24881063  0.13266816  0.63334995    -0.06000
Br142      Br  0.13659982  0.24272667  0.77613708    -0.02900
Br143      Br  0.08662982  0.18710053  0.52086390    -0.00100
Br144      Br  0.15772992  0.07818215  0.69328527    -0.04500
C145        C  0.21368372  0.23084192  0.26195683    -0.11900
C146        C  0.18312601  0.24506171  0.29344306     0.03600
C147        C  0.15977716  0.21658996  0.31826693    -0.12400
C148        C  0.16371846  0.17378597  0.31145427     0.18500
C149        C  0.18846378  0.15951541  0.27635550    -0.09400
C150        C  0.21205192  0.18768508  0.25153262    -0.02400
H151        H  0.13919470  0.22789470  0.34421451     0.05000
C152        C  0.14493831  0.14465976  0.34372218     0.20500
H153        H  0.22965475  0.17456077  0.22447222     0.10200
C154        C  0.10815243  0.12301984  0.33342793    -0.15800
C155        C  0.09000789  0.09586196  0.36423573     0.03200
C156        C  0.10904446  0.08988426  0.40592134    -0.11100
C157        C  0.14613855  0.11109122  0.41571912    -0.01100
C158        C  0.16389545  0.13847651  0.38523704    -0.06300
H159        H  0.09353090  0.12734086  0.30141299     0.06200
H160        H  0.16089230  0.10707848  0.44771833     0.09600
Br161      Br  0.19277791  0.10138563  0.26250515    -0.06000
Br162      Br  0.17148736  0.30217457  0.30737651    -0.02900
Br163      Br  0.04063246  0.06621712  0.34702850    -0.00100
Br164      Br  0.21430921  0.16677818  0.40165977    -0.04500
C165        C  0.90059331  0.92699042  0.58605117    -0.11900
C166        C  0.85662694  0.92762582  0.57761750     0.03600
C167        C  0.82990861  0.90276407  0.60290776    -0.12400
C168        C  0.84591446  0.87778023  0.63719653     0.18500
C169        C  0.88905017  0.87907764  0.64753016    -0.09400
C170        C  0.91596743  0.90335205  0.62201602    -0.02400
H171        H  0.79646553  0.90263056  0.59558879     0.05000
C172        C  0.81739924  0.85006264  0.66161146     0.20500
H173        H  0.94932048  0.90267087  0.62972418     0.10200
C174        C  0.82083668  0.80709241  0.65562732    -0.15800
C175        C  0.79650292  0.77944761  0.68027695     0.03200
C176        C  0.76675282  0.79464833  0.71212537    -0.11100
C177        C  0.76330049  0.83872218  0.71629071    -0.01100
C178        C  0.78817329  0.86586027  0.69186296    -0.06300
H179        H  0.84337914  0.79489506  0.63198490     0.06200
H180        H  0.74391968  0.85329126  0.74109015     0.09600
Br181      Br  0.91243899  0.84840008  0.69648494    -0.06000
Br182      Br  0.83040241  0.96222426  0.53322388    -0.02900
Br183      Br  0.80663527  0.72159959  0.66719348    -0.00100
Br184      Br  0.78391999  0.92435667  0.70408078    -0.04500
C185        C  0.21960615  0.77527423  0.27428707    -0.11900
C186        C  0.19557327  0.80926498  0.25573377     0.03600
C187        C  0.17146745  0.83575049  0.28277760    -0.12400
C188        C  0.17152942  0.83115744  0.32864723     0.18500
C189        C  0.19728800  0.79994203  0.34764141    -0.09400
C190        C  0.22092958  0.77310094  0.32098828    -0.02400
H191        H  0.15195332  0.85994064  0.26774010     0.05000
C192        C  0.14400290  0.85838831  0.35629073     0.20500
H193        H  0.24124191  0.75114539  0.33805389     0.10200
C194        C  0.11323154  0.84009487  0.38306394    -0.15800
C195        C  0.08848515  0.86401172  0.41188103     0.03200
C196        C  0.09338146  0.90766423  0.41351436    -0.11100
C197        C  0.12298675  0.92612939  0.38519946    -0.01100
C198        C  0.14840598  0.90197638  0.35715716    -0.06300
H199        H  0.10896850  0.80669948  0.38209698     0.06200
H200        H  0.12767423  0.95946015  0.38609240     0.09600
Br201      Br  0.20279721  0.79326983  0.41031945    -0.06000
Br202      Br  0.19113837  0.82094118  0.19365231    -0.02900
Br203      Br  0.04838671  0.83476622  0.44735313    -0.00100
Br204      Br  0.19062829  0.92981740  0.32314554    -0.04500
C205        C  0.79760491  0.76480574  0.29673502    -0.11900
C206        C  0.82638876  0.74560400  0.32745229     0.03600
C207        C  0.85267058  0.76992327  0.35342186    -0.12400
C208        C  0.85089574  0.81323308  0.35102839     0.18500
C209        C  0.81949887  0.83270067  0.32553033    -0.09400
C210        C  0.79224879  0.80868244  0.30054387    -0.02400
H211        H  0.87597265  0.75485820  0.37454362     0.05000
C212        C  0.88191230  0.83744022  0.37576331     0.20500
H213        H  0.76718117  0.82556590  0.28418307     0.10200
C214        C  0.91297475  0.85945573  0.35281611    -0.15800
C215        C  0.94185343  0.88387943  0.37546281     0.03200
C216        C  0.94018055  0.88568952  0.42179058    -0.11100
C217        C  0.91034512  0.86204871  0.44462026    -0.01100
C218        C  0.88098086  0.83851664  0.42199547    -0.06300
H219        H  0.91420796  0.85818354  0.31716368     0.06200
H220        H  0.90800980  0.86401747  0.48018281     0.09600
Br221      Br  0.81216476  0.89216803  0.32431816    -0.06000
Br222      Br  0.83677228  0.68706211  0.33421295    -0.02900
Br223      Br  0.98288186  0.91393505  0.34192772    -0.00100
Br224      Br  0.83786719  0.81149375  0.45543748    -0.04500
C225        C  0.92638011  0.10266285  0.40841262    -0.11900
C226        C  0.88980020  0.08664601  0.38811729     0.03600
C227        C  0.86361154  0.11255429  0.36208508    -0.12400
C228        C  0.87296097  0.15459952  0.35497661     0.18500
C229        C  0.90958660  0.17058259  0.37473399    -0.09400
C230        C  0.93558111  0.14489529  0.40146929    -0.02400
H231        H  0.83522733  0.09994535  0.34790201     0.05000
C232        C  0.84263156  0.18183313  0.32958247     0.20500
H233        H  0.96344167  0.15785360  0.41637485     0.10200
C234        C  0.81857787  0.21165131  0.35205547    -0.15800
C235        C  0.78802953  0.23687831  0.33073446     0.03200
C236        C  0.78347562  0.23587414  0.28350885    -0.11100
C237        C  0.80660283  0.20345679  0.26205444    -0.01100
C238        C  0.83507139  0.17672681  0.28437836    -0.06300
H239        H  0.82218728  0.21373479  0.38748693     0.06200
H240        H  0.80351570  0.19955347  0.22680764     0.09600
Br241      Br  0.92608303  0.22703116  0.36472739    -0.06000
Br242      Br  0.87180344  0.03035830  0.39702829    -0.02900
Br243      Br  0.75165685  0.26420258  0.37259061    -0.00100
Br244      Br  0.86400203  0.13454544  0.25114051    -0.04500
C245        C  0.12416815  0.93918600  0.59149177    -0.11900
C246        C  0.11793359  0.93884419  0.63770261     0.03600
C247        C  0.14274588  0.91278485  0.66504536    -0.12400
C248        C  0.17468703  0.88689288  0.64771305     0.18500
C249        C  0.18248812  0.88882399  0.60190114    -0.09400
C250        C  0.15752649  0.91476695  0.57440073    -0.02400
H251        H  0.13635235  0.91202851  0.70006331     0.05000
C252        C  0.19747021  0.85634997  0.67734995     0.20500
H253        H  0.16309134  0.91439026  0.53922682     0.10200
C254        C  0.19306050  0.81365001  0.67033145    -0.15800
C255        C  0.21387204  0.78359654  0.69673555     0.03200
C256        C  0.24176146  0.79546116  0.73148084    -0.11100
C257        C  0.24166691  0.83885277  0.74093076    -0.01100
C258        C  0.22139488  0.86873030  0.71383386    -0.06300
H259        H  0.17299148  0.80348295  0.64372279     0.06200
H260        H  0.25772867  0.85075529  0.76934142     0.09600
Br261      Br  0.22683739  0.85638259  0.57522528    -0.06000
Br262      Br  0.07641824  0.97377141  0.66583713    -0.02900
Br263      Br  0.20195836  0.72744846  0.68085314    -0.00100
Br264      Br  0.22931535  0.92641441  0.72706044    -0.04500
C265        C  0.59528434  0.08504097  0.11305721    -0.11900
C266        C  0.58081399  0.11460997  0.14421070     0.03600
C267        C  0.60893695  0.14241054  0.16314250    -0.12400
C268        C  0.65220740  0.14077644  0.15362032     0.18500
C269        C  0.66722243  0.10976420  0.12443760    -0.09400
C270        C  0.63867908  0.08326053  0.10341252    -0.02400
H271        H  0.59688687  0.16539128  0.18609472     0.05000
C272        C  0.68035822  0.17005897  0.17741895     0.20500
H273        H  0.65062999  0.06023150  0.08048609     0.10200
C274        C  0.67896060  0.17074828  0.22348301    -0.15800
C275        C  0.70112907  0.20002737  0.24804460     0.03200
C276        C  0.72630998  0.23084622  0.22685291    -0.11100
C277        C  0.72905519  0.22786575  0.18008784    -0.01100
C278        C  0.70554983  0.19941247  0.15571755    -0.06300
H279        H  0.65964915  0.14837499  0.24072226     0.06200
H280        H  0.74964971  0.24736174  0.16107465     0.09600
Br281      Br  0.72635143  0.09947442  0.11536472    -0.06000
Br282      Br  0.52296899  0.12000838  0.16227310    -0.02900
Br283      Br  0.69328222  0.19534607  0.31051291    -0.00100
Br284      Br  0.70701635  0.20451484  0.09263882    -0.04500
C285        C  0.27466042  0.23410925  0.20555075    -0.11900
C286        C  0.30513903  0.20456237  0.22238377     0.03600
C287        C  0.33200103  0.18256344  0.19399002    -0.12400
C288        C  0.32964736  0.18772828  0.14841486     0.18500
C289        C  0.29941992  0.21540869  0.13078735    -0.09400
C290        C  0.27308234  0.23864916  0.15885940    -0.02400
H291        H  0.35494748  0.16068849  0.20768492     0.05000
C292        C  0.35939189  0.16347928  0.12050739     0.20500
H293        H  0.25277716  0.26133567  0.14302317     0.10200
C294        C  0.34655297  0.12571977  0.10246871    -0.15800
C295        C  0.37588290  0.09837112  0.08304113     0.03200
C296        C  0.41923038  0.10826308  0.08237061    -0.11100
C297        C  0.43120385  0.14787549  0.09674547    -0.01100
C298        C  0.40173904  0.17524799  0.11594699    -0.06300
H299        H  0.31379085  0.11690037  0.10476112     0.06200
H300        H  0.46389233  0.15691259  0.09495095     0.09600
Br301      Br  0.29374871  0.22315306  0.06835479    -0.06000
Br302      Br  0.31201761  0.19006840  0.28361392    -0.02900
Br303      Br  0.35448364  0.04868720  0.05688982    -0.00100
Br304      Br  0.42076083  0.22785489  0.13705953    -0.04500
C305        C  0.43015009  0.88687549  0.09936713    -0.11900
C306        C  0.44166054  0.85096355  0.12398870     0.03600
C307        C  0.41022612  0.82655221  0.14328338    -0.12400
C308        C  0.36732013  0.83744718  0.13895268     0.18500
C309        C  0.35586091  0.87296941  0.11411988    -0.09400
C310        C  0.38702489  0.89686106  0.09417884    -0.02400
H311        H  0.41934089  0.79978234  0.16322347     0.05000
C312        C  0.33546981  0.81410155  0.16442282     0.20500
H313        H  0.37745080  0.92453312  0.07590274     0.10200
C314        C  0.33461454  0.81830248  0.21008587    -0.15800
C315        C  0.30571581  0.79675044  0.23610879     0.03200
C316        C  0.27596024  0.76925342  0.21651829    -0.11100
C317        C  0.27610074  0.76751852  0.16974633    -0.01100
C318        C  0.30588670  0.78851548  0.14418521    -0.06300
H319        H  0.35716057  0.83842267  0.22578663     0.06200
H320        H  0.25310093  0.74993576  0.15196369     0.09600
Br321      Br  0.29844465  0.89250750  0.10998742    -0.06000
Br322      Br  0.49932341  0.83612967  0.13670786    -0.02900
Br323      Br  0.31239428  0.80544325  0.29831033    -0.00100
Br324      Br  0.30593608  0.78006764  0.08165978    -0.04500
C325        C  0.71245103  0.78966977  0.77573288    -0.11900
C326        C  0.71421100  0.79138178  0.82305267     0.03600
C327        C  0.68775661  0.81923743  0.84576859    -0.12400
C328        C  0.65733121  0.84361399  0.82406021     0.18500
C329        C  0.65241922  0.83958411  0.77853268    -0.09400
C330        C  0.67924779  0.81296360  0.75522244    -0.02400
H331        H  0.69001412  0.82112794  0.88134311     0.05000
C332        C  0.63088491  0.87267445  0.85002532     0.20500
H333        H  0.67534785  0.81201530  0.71981764     0.10200
C334        C  0.64943918  0.90795885  0.86839720    -0.15800
C335        C  0.62622201  0.93452019  0.89596488     0.03200
C336        C  0.58370587  0.92605002  0.90503370    -0.11100
C337        C  0.56484466  0.89152540  0.88551962    -0.01100
C338        C  0.58823848  0.86445830  0.85883670    -0.06300
H339        H  0.68224971  0.91446002  0.86176497     0.06200
H340        H  0.53234916  0.88440352  0.89285142     0.09600
Br341      Br  0.61074171  0.87115471  0.74616328    -0.06000
Br342      Br  0.74562654  0.75547460  0.86280881    -0.02900
Br343      Br  0.65336618  0.98241507  0.91959864    -0.00100
Br344      Br  0.56158729  0.81500276  0.83825322    -0.04500
C345        C  0.27830935  0.21346734  0.78964514    -0.11900
C346        C  0.26046213  0.18283279  0.81845659     0.03600
C347        C  0.28638381  0.15514417  0.84256498    -0.12400
C348        C  0.33014425  0.15582403  0.83857051     0.18500
C349        C  0.34811938  0.18241018  0.80731425    -0.09400
C350        C  0.32250561  0.20959647  0.78252724    -0.02400
H351        H  0.27227813  0.13348938  0.86556255     0.05000
C352        C  0.35675448  0.12841910  0.86691599     0.20500
H353        H  0.33825841  0.22732333  0.75740683     0.10200
C354        C  0.36047903  0.08596293  0.85728645    -0.15800
C355        C  0.38864473  0.06007990  0.88068843     0.03200
C356        C  0.41371085  0.07678785  0.91477047    -0.11100
C357        C  0.40775497  0.11881627  0.92609833    -0.01100
C358        C  0.37973476  0.14458472  0.90239037    -0.06300
H359        H  0.34221717  0.07314866  0.83057311     0.06200
H360        H  0.42626585  0.13222363  0.95227425     0.09600
Br361      Br  0.40784480  0.18212170  0.79685664    -0.06000
Br362      Br  0.20157230  0.17705476  0.83035054    -0.02900
Br363      Br  0.39075783  0.00237116  0.86422036    -0.00100
Br364      Br  0.37457300  0.20202740  0.91869273    -0.04500
C365        C  0.59749196  0.91425419  0.12956657    -0.11900
C366        C  0.61552045  0.87925264  0.10774911     0.03600
C367        C  0.64145063  0.85102474  0.13064478    -0.12400
C368        C  0.65051971  0.85655474  0.17516464     0.18500
C369        C  0.63298400  0.89124831  0.19723672    -0.09400
C370        C  0.60611046  0.91946268  0.17460186    -0.02400
H371        H  0.65486512  0.82448652  0.11348104     0.05000
C372        C  0.67995069  0.82642735  0.19682228     0.20500
H373        H  0.59283424  0.94596967  0.19187400     0.10200
C374        C  0.72320632  0.83085656  0.19058265    -0.15800
C375        C  0.75238248  0.80208260  0.20827426     0.03200
C376        C  0.73889739  0.76885303  0.23647547    -0.11100
C377        C  0.69456317  0.76242228  0.23753186    -0.01100
C378        C  0.66562757  0.79069732  0.21849321    -0.06300
H379        H  0.73438394  0.85674973  0.17096684     0.06200
H380        H  0.68139220  0.73484264  0.25213890     0.09600
Br381      Br  0.64634479  0.90189470  0.25763374    -0.06000
Br382      Br  0.60501327  0.86624590  0.04699654    -0.02900
Br383      Br  0.80965487  0.81239968  0.19204273    -0.00100
Br384      Br  0.60672496  0.77814371  0.22083099    -0.04500
C385        C  0.29769177  0.78665422  0.79413794    -0.11900
C386        C  0.32956275  0.81550288  0.78102418     0.03600
C387        C  0.35316437  0.83686411  0.81252445    -0.12400
C388        C  0.34784285  0.82969267  0.85757538     0.18500
C389        C  0.31891518  0.79985312  0.87128641    -0.09400
C390        C  0.29430706  0.77911009  0.84029295    -0.02400
H391        H  0.37627308  0.85923303  0.80171182     0.05000
C392        C  0.37388635  0.85259190  0.88974229     0.20500
H393        H  0.27438586  0.75515180  0.85334203     0.10200
C394        C  0.35651408  0.88688594  0.91214247    -0.15800
C395        C  0.38093683  0.91016303  0.94137296     0.03200
C396        C  0.42395294  0.89941807  0.94827220    -0.11100
C397        C  0.44036591  0.86363244  0.92731237    -0.01100
C398        C  0.41591940  0.84057981  0.89820758    -0.06300
H399        H  0.32384690  0.89578942  0.90654764     0.06200
H400        H  0.47291964  0.85411738  0.93229644     0.09600
Br401      Br  0.31406601  0.78447477  0.93225161    -0.06000
Br402      Br  0.34289109  0.82964536  0.72100696    -0.02900
Br403      Br  0.35307636  0.95524856  0.97147356    -0.00100
Br404      Br  0.44135352  0.79302247  0.87030454    -0.04500
C405        C  0.77352954  0.20618924  0.71332874    -0.11900
C406        C  0.78023563  0.20952159  0.66668783     0.03600
C407        C  0.80453829  0.17925858  0.64462427    -0.12400
C408        C  0.82469288  0.14631014  0.66700728     0.18500
C409        C  0.82088931  0.14414342  0.71299278    -0.09400
C410        C  0.79662333  0.17399288  0.73535681    -0.02400
H411        H  0.80953585  0.18256904  0.60945087     0.05000
C412        C  0.85298050  0.11753315  0.64191218     0.20500
H413        H  0.79482258  0.17119400  0.77078538     0.10200
C414        C  0.89638953  0.11682923  0.65089188    -0.15800
C415        C  0.92494094  0.09434817  0.62456065     0.03200
C416        C  0.91026207  0.07262950  0.58712052    -0.11100
C417        C  0.86638945  0.07180430  0.57970667    -0.01100
C418        C  0.83798188  0.09370700  0.60662708    -0.06300
H419        H  0.90838680  0.13502692  0.67792822     0.06200
H420        H  0.85389803  0.05491163  0.55200385     0.09600
Br421      Br  0.84719698  0.10027616  0.74695146    -0.06000
Br422      Br  0.76530518  0.25631727  0.62949504    -0.02900
Br423      Br  0.98321532  0.09643372  0.64182837    -0.00100
Br424      Br  0.77891740  0.09018366  0.59364394    -0.04500
C425        C  0.71585512  0.21289391  0.77413371    -0.11900
C426        C  0.69151415  0.23293265  0.80783407     0.03600
C427        C  0.66630571  0.20960500  0.83651980    -0.12400
C428        C  0.66209375  0.16665931  0.83154623     0.18500
C429        C  0.68149188  0.14724283  0.79545585    -0.09400
C430        C  0.70723933  0.17012104  0.76717134    -0.02400
H431        H  0.64965203  0.22518283  0.86299829     0.05000
C432        C  0.63504679  0.14324687  0.86260834     0.20500
H433        H  0.71966421  0.15368267  0.73885657     0.10200
C434        C  0.59662041  0.12772349  0.84754651    -0.15800
C435        C  0.56985679  0.10606103  0.87586693     0.03200
C436        C  0.58080295  0.10054536  0.92049860    -0.11100
C437        C  0.61919306  0.11607941  0.93573676    -0.01100
C438        C  0.64654694  0.13683690  0.90707010    -0.06300
H439        H  0.58731887  0.13269030  0.81355542     0.06200
H440        H  0.62807365  0.11171853  0.96999906     0.09600
Br441      Br  0.67388482  0.08924887  0.78334597    -0.06000
Br442      Br  0.69192736  0.29135736  0.81978528    -0.02900
Br443      Br  0.51783631  0.08654740  0.85226492    -0.00100
Br444      Br  0.69971444  0.15454684  0.92975821    -0.04500
C445        C  0.09533276  0.42905867  0.07171385    -0.11900
C446        C  0.13469225  0.41219019  0.05788555     0.03600
C447        C  0.15774089  0.38568320  0.08615193    -0.12400
C448        C  0.14204706  0.37483554  0.12771692     0.18500
C449        C  0.10324762  0.39162473  0.14175035    -0.09400
C450        C  0.08039564  0.41854620  0.11401783    -0.02400
H451        H  0.18768970  0.37268499  0.07529208     0.05000
C452        C  0.16689255  0.34645963  0.15643609     0.20500
H453        H  0.05025333  0.43061136  0.12540342     0.10200
C454        C  0.19410919  0.36344403  0.18710074    -0.15800
C455        C  0.21753602  0.33831024  0.21623090     0.03200
C456        C  0.21726160  0.29353926  0.21189026    -0.11100
C457        C  0.18663656  0.27750046  0.18271352    -0.01100
C458        C  0.16184681  0.30328059  0.15550044    -0.06300
H459        H  0.19554266  0.39707506  0.18967979     0.06200
H460        H  0.18285072  0.24414618  0.18000159     0.09600
Br461      Br  0.07972244  0.37731762  0.19798779    -0.06000
Br462      Br  0.15766333  0.42089803  0.00005006    -0.02900
Br463      Br  0.24081314  0.37116466  0.26318533    -0.00100
Br464      Br  0.12090646  0.27839834  0.11789796    -0.04500
C465        C  0.07352165  0.60666130  0.07539811    -0.11900
C466        C  0.08657360  0.58678781  0.11487904     0.03600
C467        C  0.11352633  0.60734351  0.14391058    -0.12400
C468        C  0.12750193  0.64761442  0.13427693     0.18500
C469        C  0.11402446  0.66757056  0.09529420    -0.09400
C470        C  0.08713998  0.64722573  0.06643086    -0.02400
H471        H  0.12337663  0.59204059  0.17420915     0.05000
C472        C  0.15611725  0.66891949  0.16485229     0.20500
H473        H  0.07774487  0.66284264  0.03614423     0.10200
C474        C  0.19933599  0.66030990  0.16322716    -0.15800
C475        C  0.22797261  0.68303535  0.18828226     0.03200
C476        C  0.21363041  0.71656571  0.21581190    -0.11100
C477        C  0.16915601  0.72281823  0.21822616    -0.01100
C478        C  0.14101289  0.69977524  0.19327512    -0.06300
H479        H  0.21100264  0.63612394  0.14147335     0.06200
H480        H  0.15488394  0.74457784  0.24073698     0.09600
Br481      Br  0.13266816  0.72225550  0.07959626    -0.06000
Br482      Br  0.06668844  0.53298813  0.13211126    -0.02900
Br483      Br  0.28592645  0.66589135  0.18074146    -0.00100
Br484      Br  0.08170253  0.71110678  0.19964134    -0.04500
C485        C  0.79788039  0.71741626  0.22646576    -0.11900
C486        C  0.84301429  0.71783080  0.22074383     0.03600
C487        C  0.86209002  0.69257530  0.18875407    -0.12400
C488        C  0.83832605  0.66875088  0.16002237     0.18500
C489        C  0.79423393  0.67125205  0.16208021    -0.09400
C490        C  0.77465040  0.69586874  0.19406412    -0.02400
H491        H  0.89615028  0.69199098  0.18556460     0.05000
C492        C  0.86019447  0.64044014  0.12904826     0.20500
H493        H  0.74055820  0.69543355  0.19577617     0.10200
C494        C  0.88361752  0.60647267  0.14583047    -0.15800
C495        C  0.90408921  0.57852093  0.11754049     0.03200
C496        C  0.89932747  0.58309970  0.07154723    -0.11100
C497        C  0.87658694  0.61769252  0.05490084    -0.01100
C498        C  0.85833798  0.64699048  0.08325128    -0.06300
H499        H  0.88636356  0.60199854  0.18112179     0.06200
H500        H  0.87512945  0.62329762  0.01970820     0.09600
Br501      Br  0.75927389  0.63747786  0.12569416    -0.06000
Br502      Br  0.88335134  0.75400793  0.24780318    -0.02900
Br503      Br  0.93884425  0.53556450  0.14361698    -0.00100
Br504      Br  0.83479168  0.69735844  0.05840934    -0.04500
C505        C  0.10255329  0.60113794  0.91188126    -0.11900
C506        C  0.14646480  0.60618335  0.91867937     0.03600
C507        C  0.16884619  0.63540667  0.89389252    -0.12400
C508        C  0.14887207  0.66083731  0.86230635     0.18500
C509        C  0.10500588  0.65697366  0.85607854    -0.09400
C510        C  0.08227504  0.62753957  0.88083880    -0.02400
H511        H  0.20251094  0.63807083  0.89902902     0.05000
C512        C  0.17581904  0.68737994  0.83350265     0.20500
H513        H  0.04872604  0.62480707  0.87515142     0.10200
C514        C  0.20189926  0.66764608  0.80283246    -0.15800
C515        C  0.23146745  0.68935540  0.77747278     0.03200
C516        C  0.23635936  0.73366184  0.78285914    -0.11100
C517        C  0.20690820  0.75327647  0.81176612    -0.01100
C518        C  0.17855528  0.73071446  0.83797903    -0.06300
H519        H  0.19921111  0.63426784  0.79875925     0.06200
H520        H  0.20794890  0.78668065  0.81625633     0.09600
Br521      Br  0.07529244  0.68994339  0.81286951    -0.06000
Br522      Br  0.17855845  0.57568604  0.96223963    -0.02900
Br523      Br  0.25810393  0.65304166  0.73501138    -0.00100
Br524      Br  0.14689461  0.75994951  0.88214710    -0.04500
C525        C  0.77759275  0.73848141  0.76772377    -0.11900
C526        C  0.81200512  0.75753679  0.79037260     0.03600
C527        C  0.84254728  0.73305320  0.81222414    -0.12400
C528        C  0.84143094  0.68965687  0.81136125     0.18500
C529        C  0.81051353  0.67047584  0.78573957    -0.09400
C530        C  0.77951728  0.69447851  0.76443358    -0.02400
H531        H  0.86616209  0.74811749  0.83205176     0.05000
C532        C  0.86858189  0.66488626  0.84188759     0.20500
H533        H  0.75760815  0.67772615  0.74444250     0.10200
C534        C  0.84859355  0.63922518  0.87266740    -0.15800
C535        C  0.87178749  0.61306341  0.90055307     0.03200
C536        C  0.91616415  0.61396246  0.90007164    -0.11100
C537        C  0.93654961  0.64095443  0.87078925    -0.01100
C538        C  0.91310329  0.66613609  0.84139358    -0.06300
H539        H  0.81445115  0.63851936  0.87398968     0.06200
H540        H  0.97068721  0.64128372  0.86963449     0.09600
Br541      Br  0.80954113  0.61114878  0.77796428    -0.06000
Br542      Br  0.81815978  0.81640465  0.79909291    -0.02900
Br543      Br  0.84061286  0.57519878  0.93655049    -0.00100
Br544      Br  0.94329738  0.69921795  0.79951146    -0.04500
C545        C  0.07823240  0.41540878  0.89688988    -0.11900
C546        C  0.10899864  0.43343919  0.86907566     0.03600
C547        C  0.13855737  0.40791642  0.84754740    -0.12400
C548        C  0.13773295  0.36448382  0.85198389     0.18500
C549        C  0.10617083  0.34639339  0.87811791    -0.09400
C550        C  0.07723544  0.37174087  0.90040940    -0.02400
H551        H  0.16288298  0.42212993  0.82772332     0.05000
C552        C  0.17044892  0.33844839  0.83013142     0.20500
H553        H  0.05432956  0.35699545  0.92148497     0.10200
C554        C  0.19699708  0.31291229  0.85579642    -0.15800
C555        C  0.22523137  0.28415727  0.83680792     0.03200
C556        C  0.22595521  0.27917619  0.78986943    -0.11100
C557        C  0.20260257  0.30933785  0.76490617    -0.01100
C558        C  0.17511452  0.33813661  0.78428176    -0.06300
H559        H  0.19545879  0.31534377  0.89132956     0.06200
H560        H  0.20289061  0.30839656  0.72934387     0.09600
Br561      Br  0.10074064  0.28718112  0.88447724    -0.06000
Br562      Br  0.11483004  0.49229273  0.86010557    -0.02900
Br563      Br  0.26207274  0.25816034  0.87969500    -0.00100
Br564      Br  0.14114667  0.37259667  0.74586194    -0.04500
C565        C  0.77690776  0.29303612  0.22009321    -0.11900
C566        C  0.82167326  0.29796143  0.21456830     0.03600
C567        C  0.83706223  0.32584956  0.18281308    -0.12400
C568        C  0.81024202  0.35105445  0.15726392     0.18500
C569        C  0.76670697  0.34821609  0.16323914    -0.09400
C570        C  0.75065049  0.31959921  0.19355514    -0.02400
H571        H  0.87083958  0.32895496  0.17874542     0.05000
C572        C  0.82889545  0.38015688  0.12478551     0.20500
H573        H  0.71668176  0.31801324  0.19644971     0.10200
C574        C  0.82821301  0.37022403  0.07985766    -0.15800
C575        C  0.85098480  0.39364500  0.04906152     0.03200
C576        C  0.87503294  0.42768731  0.06320146    -0.11100
C577        C  0.87400298  0.43856464  0.10786567    -0.01100
C578        C  0.85104682  0.41538884  0.13850280    -0.06300
H579        H  0.81152683  0.34297441  0.06903306     0.06200
H580        H  0.89220544  0.46444325  0.11920863     0.09600
Br581      Br  0.72800684  0.38420064  0.13200002    -0.06000
Br582      Br  0.86663552  0.27468392  0.25008195    -0.02900
Br583      Br  0.85192032  0.37467459  0.98929798    -0.00100
Br584      Br  0.85176316  0.43231550  0.19895767    -0.04500
C585        C  0.91867812  0.39471144  0.88956827    -0.11900
C586        C  0.92651812  0.35118914  0.89019780     0.03600
C587        C  0.90337630  0.32497398  0.86261932    -0.12400
C588        C  0.87198494  0.34094635  0.83414544     0.18500
C589        C  0.86486387  0.38440925  0.83288219    -0.09400
C590        C  0.88836705  0.41058819  0.85975249    -0.02400
H591        H  0.90919612  0.29163698  0.86420521     0.05000
C592        C  0.84394641  0.31161380  0.81036612     0.20500
H593        H  0.88109294  0.44368081  0.85886417     0.13000
C594        C  0.82004710  0.28362616  0.83497761    -0.15800
C595        C  0.79171027  0.25652076  0.81494354     0.03200
C596        C  0.78224882  0.26067765  0.76885429    -0.11100
C597        C  0.81152535  0.28423065  0.74406206    -0.01100
C598        C  0.84159374  0.30961070  0.76417131    -0.06300
H599        H  0.82465560  0.28180588  0.87031673     0.06200
H600        H  0.80937155  0.28498103  0.70855411     0.09600
Br601      Br  0.82066450  0.41005076  0.79873039    -0.06000
Br602      Br  0.96806756  0.32526168  0.92767217    -0.02900
Br603      Br  0.77677969  0.21072826  0.85284551    -0.00100
Br604      Br  0.87868826  0.34072073  0.72702633    -0.04500
C605        C  0.71052713  0.73664389  0.71659133    -0.11900
C606        C  0.68279631  0.70757935  0.73719125     0.03600
C607        C  0.65412635  0.68483649  0.71223750    -0.12400
C608        C  0.65109266  0.68979426  0.66659775     0.18500
C609        C  0.67626931  0.71961008  0.64587836    -0.09400
C610        C  0.70449446  0.74302379  0.67059025    -0.02400
H611        H  0.63406953  0.66256509  0.72866213     0.05000
C612        C  0.62246985  0.66259478  0.64126520     0.20500
H613        H  0.72116207  0.76668343  0.65267694     0.10200
C614        C  0.58888845  0.67998501  0.61669517    -0.15800
C615        C  0.56312224  0.65496400  0.59053208     0.03200
C616        C  0.56928004  0.61118951  0.59070183    -0.11100
C617        C  0.60207763  0.59402409  0.61663417    -0.01100
C618        C  0.62900866  0.61916550  0.64074548    -0.06300
H619        H  0.58347105  0.71338683  0.61688668     0.06200
H620        H  0.60850687  0.56078112  0.61630610     0.09600
Br621      Br  0.67461641  0.72871287  0.58333351    -0.06000
Br622      Br  0.68085136  0.69586446  0.79917973    -0.02900
Br623      Br  0.52120138  0.68286979  0.55486857    -0.00100
Br624      Br  0.67675767  0.59278515  0.66889645    -0.04500
C625        C  0.39038628  0.40944027  0.58504872    -0.11900
C626        C  0.40747818  0.36996552  0.59738732     0.03600
C627        C  0.38501523  0.34406933  0.62596885    -0.12400
C628        C  0.34554462  0.35633712  0.64241081     0.18500
C629        C  0.32848548  0.39546306  0.63058731    -0.09400
C630        C  0.35078222  0.42154509  0.60221232    -0.02400
H631        H  0.39813341  0.31381620  0.63495545     0.05000
C632        C  0.32254143  0.32778623  0.67178038     0.20500
H633        H  0.33683804  0.45149950  0.59350943     0.10200
C634        C  0.33218040  0.32665645  0.71655626    -0.15800
C635        C  0.31014534  0.30109349  0.74585053     0.03200
C636        C  0.27850498  0.27340130  0.73029353    -0.11100
C637        C  0.26874174  0.27655373  0.68452439    -0.01100
C638        C  0.29028433  0.30285978  0.65586068    -0.06300
H639        H  0.35645888  0.34679211  0.72903411     0.06200
H640        H  0.24249793  0.26066135  0.67018352     0.09600
Br641      Br  0.27479456  0.41445086  0.65248169    -0.06000
Br642      Br  0.45989458  0.34780848  0.57528872    -0.02900
Br643      Br  0.32572008  0.30775280  0.80636365    -0.00100
Br644      Br  0.27320606  0.30493670  0.59519039    -0.04500
C645        C  0.59322328  0.43127288  0.41122789    -0.11900
C646        C  0.58436593  0.42952235  0.36562050     0.03600
C647        C  0.60996024  0.40488238  0.33786189    -0.12400
C648        C  0.64348916  0.38042657  0.35494311     0.18500
C649        C  0.65217262  0.38251262  0.40039455    -0.09400
C650        C  0.62821131  0.40863279  0.42746837    -0.02400
H651        H  0.60329692  0.40435159  0.30289908     0.05000
C652        C  0.66963478  0.35318645  0.32562755     0.20500
H653        H  0.63569417  0.40922093  0.46224655     0.10200
C654        C  0.71317601  0.35912812  0.32349786    -0.15800
C655        C  0.74011362  0.33104706  0.30161746     0.03200
C656        C  0.72383049  0.29509893  0.28004644    -0.11100
C657        C  0.67907243  0.29275739  0.27841390    -0.01100
C658        C  0.65253753  0.32012999  0.30183006    -0.06300
H659        H  0.72663793  0.38517145  0.34069188     0.06200
H660        H  0.66355384  0.26964656  0.25916031     0.09600
Br661      Br  0.69365679  0.34735194  0.42865464    -0.06000
Br662      Br  0.53868804  0.46067015  0.33916109    -0.02900
Br663      Br  0.79892455  0.34345537  0.30712005    -0.00100
Br664      Br  0.59315228  0.30932343  0.30192332    -0.04500
C665        C  0.38471683  0.56901817  0.41449808    -0.11900
C666        C  0.38643994  0.56307111  0.36855485     0.03600
C667        C  0.36239049  0.58881956  0.34052482    -0.12400
C668        C  0.33739652  0.62140379  0.35751033     0.18500
C669        C  0.33477738  0.62653147  0.40351806    -0.09400
C670        C  0.35784704  0.60001868  0.43157509    -0.02400
H671        H  0.36397318  0.58408102  0.30528773     0.05000
C672        C  0.31464181  0.65013736  0.32704688     0.20500
H673        H  0.35688252  0.60540629  0.46673312     0.10200
C674        C  0.27064553  0.65183871  0.32794466    -0.15800
C675        C  0.24775229  0.68045064  0.30207949     0.03200
C676        C  0.26900470  0.70947888  0.27409292    -0.11100
C677        C  0.31365645  0.70510861  0.27197250    -0.01100
C678        C  0.33613920  0.67639207  0.29793227    -0.06300
H679        H  0.25388413  0.63094276  0.34968483     0.06200
H680        H  0.33221314  0.72304576  0.24926741     0.09600
Br681      Br  0.30330819  0.67163329  0.42955982    -0.06000
Br682      Br  0.42104994  0.52026449  0.34252545    -0.02900
Br683      Br  0.18764687  0.67805834  0.30997753    -0.00100
Br684      Br  0.39652873  0.67517769  0.29270525    -0.04500
C685        C  0.60665570  0.58103430  0.42095930    -0.11900
C686        C  0.65062478  0.58075070  0.42923005     0.03600
C687        C  0.67716099  0.60591234  0.40392127    -0.12400
C688        C  0.66103141  0.63130701  0.36996064     0.18500
C689        C  0.61779438  0.63001923  0.35998801    -0.09400
C690        C  0.59105344  0.60537459  0.38549414    -0.02400
H691        H  0.71067796  0.60579796  0.41086597     0.05000
C692        C  0.69010216  0.65784105  0.34437257     0.20500
H693        H  0.55769592  0.60588430  0.37779757     0.10200
C694        C  0.71827037  0.63909499  0.31511781    -0.15800
C695        C  0.74659217  0.66242383  0.28995379     0.03200
C696        C  0.74567521  0.70734712  0.29219401    -0.11100
C697        C  0.71899759  0.72495497  0.32501942    -0.01100
C698        C  0.69135947  0.70103051  0.35018212    -0.06300
H699        H  0.71874344  0.60541108  0.31259416     0.06200
H700        H  0.71825792  0.75837170  0.32977489     0.09600
Br701      Br  0.59413551  0.66072817  0.31118407    -0.06000
Br702      Br  0.67716848  0.54599754  0.47325591    -0.02900
Br703      Br  0.78743171  0.62661636  0.26109553    -0.00100
Br704      Br  0.65585452  0.72874112  0.39231623    -0.04500
C705        C  0.56962699  0.38814979  0.58346492    -0.11900
C706        C  0.59028689  0.35301079  0.56453642     0.03600
C707        C  0.61605144  0.32668752  0.59061144    -0.12400
C708        C  0.62054602  0.33310195  0.63604488     0.18500
C709        C  0.59730512  0.36618121  0.65542059    -0.09400
C710        C  0.57297769  0.39351887  0.62920219    -0.02400
H711        H  0.63377831  0.30174005  0.57492025     0.05000
C712        C  0.65278270  0.30846586  0.66186815     0.20500
H713        H  0.55664616  0.41939673  0.64482690     0.10200
C714        C  0.68372484  0.33006983  0.68457327    -0.15800
C715        C  0.71350439  0.31009876  0.71192695     0.03200
C716        C  0.71577686  0.26535731  0.71459293    -0.11100
C717        C  0.68467482  0.24402405  0.68992788    -0.01100
C718        C  0.65367611  0.26471175  0.66448595    -0.06300
H719        H  0.68368423  0.36383923  0.68209083     0.06200
H720        H  0.68448357  0.21024950  0.69029128     0.09600
Br721      Br  0.59716324  0.37535456  0.71785732    -0.06000
Br722      Br  0.58680136  0.33956749  0.50318408    -0.02900
Br723      Br  0.74397666  0.35010485  0.74537215    -0.00100
Br724      Br  0.61260057  0.23141420  0.63534302    -0.04500
C725        C  0.30243650  0.73802364  0.73042839    -0.11900
C726        C  0.33306688  0.70945151  0.74901221     0.03600
C727        C  0.35971892  0.68561641  0.72170767    -0.12400
C728        C  0.35800191  0.68944069  0.67592033     0.18500
C729        C  0.33195884  0.72058448  0.65738345    -0.09400
C730        C  0.30521746  0.74456297  0.68418787    -0.02400
H731        H  0.38028591  0.66202084  0.73629262     0.05000
C732        C  0.37958323  0.65767056  0.64808569     0.20500
H733        H  0.28704355  0.76866318  0.66778960     0.10200
C734        C  0.35520650  0.62680378  0.62834190    -0.15800
C735        C  0.37384247  0.59611352  0.60170269     0.03200
C736        C  0.41769865  0.59595964  0.59420583    -0.11100
C737        C  0.44220325  0.62604311  0.61504066    -0.01100
C738        C  0.42359946  0.65674962  0.64179494    -0.06300
H739        H  0.32138551  0.62682315  0.63342926     0.06200
H740        H  0.47592554  0.62582522  0.61012844     0.09600
Br741      Br  0.33240904  0.73194955  0.59528183    -0.06000
Br742      Br  0.33740487  0.69512504  0.81042455    -0.02900
Br743      Br  0.33781082  0.55616019  0.57495235    -0.00100
Br744      Br  0.45917706  0.69774709  0.66744875    -0.04500
C745        C  0.40946302  0.39623195  0.41512120    -0.11900
C746        C  0.36743861  0.40893380  0.40548387     0.03600
C747        C  0.34313672  0.38567790  0.37630727    -0.12400
C748        C  0.35940805  0.34931082  0.35699832     0.18500
C749        C  0.40090832  0.33635926  0.36664169    -0.09400
C750        C  0.42556955  0.35978556  0.39519721    -0.02400
H751        H  0.31095324  0.39549128  0.36934256     0.05000
C752        C  0.33231060  0.32484083  0.32752652     0.20500
H753        H  0.45740046  0.34897888  0.40229155     0.10200
C754        C  0.33864843  0.32679668  0.28208148    -0.15800
C755        C  0.31173314  0.30653592  0.25288111     0.03200
C756        C  0.27715817  0.28253160  0.26915021    -0.11100
C757        C  0.27394297  0.27840517  0.31559911    -0.01100
C758        C  0.29992816  0.30018266  0.34425269    -0.06300
H759        H  0.36375599  0.34580877  0.26911195     0.06200
H760        H  0.25148326  0.25816480  0.33080688     0.09600
Br761      Br  0.42429991  0.28567598  0.34322367    -0.06000
Br762      Br  0.33963237  0.45537895  0.43326391    -0.02900
Br763      Br  0.32196631  0.31885652  0.19171018    -0.00100
Br764      Br  0.28996525  0.29521696  0.40638584    -0.04500
loop_ 
_geom_bond_atom_site_label_1 
_geom_bond_atom_site_label_2 
_geom_bond_distance 
_geom_bond_site_symmetry_2 
_ccdc_geom_bond_type 
O1            C9   1.264       .  A
O1          Co21   1.889       .  S
O2           C10   1.260       .  A
O2          Co22   1.963       .  S
O3           C11   1.264       .  A
O3          Co23   2.011       .  S
O4           C12   1.280       .  A
O4          Co24   2.024       .  S
O5           C11   1.256       .  A
O5          Co22   1.975       .  S
O6           C12   1.270       .  A
O6          Co21   1.978       .  S
O7           C10   1.272       .  A
O7          Co24   2.027       .  S
O8            C9   1.297       .  A
O8          Co23   2.118       .  S
C9          C745   1.489       .  S
C10         C685   1.492       .  S
C11         C665   1.473       .  S
C12         C645   1.490       .  S
O13          C26   1.262       .  A
O13         Co21   2.010       .  S
O14          C27   1.277       .  A
O14         Co22   2.026       .  S
O15          C28   1.268       .  A
O15         Co23   1.885       .  S
O16          C29   1.266       .  A
O16         Co24   1.965       .  S
O17          C29   1.276       .  A
O17         Co22   2.034       .  S
O18          C28   1.299       .  A
O18         Co21   2.114       .  S
O19          C26   1.264       .  A
O19         Co24   1.994       .  S
O20          C27   1.271       .  A
O20         Co23   1.985       .  S
Co21         O25   2.000       .  S
Co22         O25   2.028       .  S
Co23         O25   2.011       .  S
Co24         O25   2.032       .  S
C26         C705   1.498       .  S
C27         C736   1.482       .  S
C28         C625   1.489       .  S
C29         C616   1.489       .  S
O30          C38   1.276       .  A
O30         Co50   2.036   1_556  S
O31          C39   1.297       .  A
O31         Co51   2.109   1_455  S
O32          C40   1.255       .  A
O32         Co52   1.970       .  S
O33          C41   1.268       .  A
O33         Co53   1.968       .  S
O34          C40   1.263       .  A
O34         Co51   2.013       .  S
O35          C41   1.280       .  A
O35         Co50   2.023   1_456  S
O36          C39   1.265       .  A
O36         Co53   1.901       .  S
O37          C38   1.264       .  A
O37         Co52   1.968       .  S
C38         C585   1.497       .  S
C39         C505   1.502       .  S
C40         C536   1.469       .  S
C41         C545   1.488       .  S
O42          C55   1.256       .  A
O42         Co50   1.969   1_455  S
O43          C56   1.261       .  A
O43         Co51   1.959   1_554  S
O44          C57   1.271   1_556  A
O44         Co52   2.030       .  S
O45          C58   1.293       .  A
O45         Co53   2.105   1_554  S
O46          C58   1.265       .  A
O46         Co51   1.899   1_454  S
O47          C57   1.259       .  A
O47         Co50   1.967       .  S
O48          C55   1.263       .  A
O48         Co53   2.012   1_554  S
O49          C56   1.279       .  A
O49         Co52   2.039   1_554  S
Co50         O54   2.024   1_554  S
Co51         O54   2.023       .  S
Co52         O54   2.036       .  S
Co53         O54   2.014   1_455  S
C55         C445   1.487       .  S
C56         C496   1.475       .  S
C57         C576   1.481       .  S
C58         C465   1.479       .  S
C59         C405   1.579       .  S
C59         C425   1.578       .  S
C59         C596   1.575       .  S
C59         C716   1.580       .  S
O60          C68   1.300       .  A
O60         Co80   2.129   1_556  S
O61          C69   1.275       .  A
O61         Co81   2.039       .  S
O62          C70   1.268       .  A
O62         Co82   1.975   1_565  S
O63          C71   1.259       .  A
O63         Co83   1.984   1_545  S
O64          C70   1.279       .  A
O64         Co81   2.028   1_556  S
O65          C71   1.264       .  A
O65         Co80   2.008       .  S
O66          C69   1.259       .  A
O66         Co83   1.952       .  S
O67          C68   1.262       .  A
O67         Co82   1.875       .  S
C68         C356   1.484       .  S
C69         C305   1.484       .  S
C70         C396   1.493       .  S
C71         C296   1.489       .  S
O72          C85   1.270       .  A
O72         Co80   1.984       .  S
O73          C86   1.257       .  A
O73         Co81   1.981   1_556  S
O74          C87   1.297       .  A
O74         Co82   2.115       .  S
O75          C88   1.277       .  A
O75         Co83   2.057       .  S
O76          C88   1.253       .  A
O76         Co81   1.951       .  S
O77          C87   1.266       .  A
O77         Co80   1.890   1_556  S
O78          C85   1.277       .  A
O78         Co83   2.025   1_545  S
O79          C86   1.260       .  A
O79         Co82   2.002   1_565  S
Co80         O84   2.005   1_545  S
Co81         O84   2.028       .  S
Co82         O84   1.998   1_546  S
Co83         O84   2.040       .  S
C85         C265   1.492       .  S
C86         C336   1.470       .  S
C87         C436   1.474       .  S
C88         C365   1.489       .  S
C89         C256   1.595       .  S
C89         C385   1.589       .  S
C89         C516   1.588       .  S
C89         C725   1.576       .  S
O90          C98   1.269       .  A
O90        Co110   1.972   1_655  S
O91          C99   1.259       .  A
O91        Co111   1.980       .  S
O92         C100   1.270       .  A
O92        Co112   2.015       .  S
O93         C101   1.292       .  A
O93        Co113   2.084       .  S
O94         C100   1.264       .  A
O94        Co111   1.969   1_655  S
O95         C101   1.268       .  A
O95        Co110   1.903       .  S
O96          C99   1.271       .  A
O96        Co113   2.040   1_565  S
O97          C98   1.282       .  A
O97        Co112   2.032   1_545  S
C98         C416   1.497       .  S
C99         C245   1.500       .  S
C100        C165   1.485       .  S
C101        C136   1.479       .  S
O102        C115   1.295       .  A
O102       Co110   2.095       .  S
O103        C116   1.273       .  A
O103       Co111   2.017   1_655  S
O104        C117   1.257       .  A
O104       Co112   1.976   1_545  S
O105        C118   1.268       .  A
O105       Co113   1.969   1_565  S
O106        C118   1.279       .  A
O106       Co111   2.033       .  S
O107        C117   1.267       .  A
O107       Co110   2.033   1_655  S
O108        C115   1.270       .  A
O108       Co113   1.900       .  S
O109        C116   1.260       .  A
O109       Co112   1.960       .  S
Co110       O114   2.006   1_545  S
Co111       O114   2.030       .  S
Co112       O114   2.025   1_655  S
Co113       O114   2.005   1_545  S
C115        C156   1.477       .  S
C116        C216   1.468       .  S
C117        C225   1.498       .  S
C118        C196   1.489       .  S
C119        C205   1.572       .  S
C119        C376   1.592       .  S
C119        C485   1.563       .  S
C119        C696   1.582       .  S
C120        C145   1.587       .  S
C120        C285   1.583       .  S
C120        C456   1.574       .  S
C120        C756   1.566       .  S
C121        C236   1.584       .  S
C121        C276   1.592       .  S
C121        C565   1.585       .  S
C121        C656   1.582       .  S
C122        C185   1.578       .  S
C122        C316   1.577       .  S
C122        C476   1.579       .  S
C122        C676   1.575       .  S
C123        C125   1.576       .  S
C123        C345   1.576       .  S
C123        C556   1.565       .  S
C123        C636   1.587       .  S
C124        C176   1.577       .  S
C124        C325   1.573       .  S
C124        C525   1.568       .  S
C124        C605   1.584       .  S
C125        C126   1.441       .  A
C125        C130   1.422       .  A
C126        C127   1.397       .  A
C126       Br142   1.929       .  S
C127        C128   1.391       .  A
C127        H131   1.085       .  S
C128        C132   1.475       .  S
C128        C129   1.400       .  A
C129        C130   1.398       .  A
C129       Br141   1.918       .  S
C130        H133   1.083       .  S
C132        C134   1.403       .  A
C132        C138   1.404       .  A
C134        C135   1.401       .  A
C134        H139   1.083       .  S
C135        C136   1.413       .  A
C135       Br143   1.921       .  S
C136        C137   1.406       .  A
C137        C138   1.396       .  A
C137        H140   1.083       .  S
C138       Br144   1.919       .  S
C145        C146   1.433       .  A
C145        C150   1.426       .  A
C146        C147   1.402       .  A
C146       Br162   1.915       .  S
C147        C148   1.395       .  A
C147        H151   1.084       .  S
C148        C152   1.482       .  S
C148        C149   1.399       .  A
C149        C150   1.400       .  A
C149       Br161   1.919       .  S
C150        H153   1.078       .  S
C152        C154   1.404       .  A
C152        C158   1.408       .  A
C154        C155   1.404       .  A
C154        H159   1.084       .  S
C155        C156   1.413       .  A
C155       Br163   1.920       .  S
C156        C157   1.402       .  A
C157        C158   1.397       .  A
C157        H160   1.084       .  S
C158       Br164   1.920       .  S
C165        C166   1.417       .  A
C165        C170   1.408       .  A
C166        C167   1.400       .  A
C166       Br182   1.921       .  S
C167        C168   1.400       .  A
C167        H171   1.084       .  S
C168        C172   1.476       .  S
C168        C169   1.405       .  A
C169        C170   1.397       .  A
C169       Br181   1.920       .  S
C170        H173   1.083       .  S
C172        C174   1.396       .  A
C172        C178   1.397       .  A
C174        C175   1.399       .  A
C174        H179   1.084       .  S
C175        C176   1.434       .  A
C175       Br183   1.925       .  S
C176        C177   1.425       .  A
C177        C178   1.395       .  A
C177        H180   1.077       .  S
C178       Br184   1.920       .  S
C185        C186   1.433       .  A
C185        C190   1.420       .  A
C186        C187   1.404       .  A
C186       Br202   1.924       .  S
C187        C188   1.400       .  A
C187        H191   1.084       .  S
C188        C192   1.489       .  S
C188        C189   1.404       .  A
C189        C190   1.396       .  A
C189       Br201   1.921       .  S
C190        H193   1.077       .  S
C192        C194   1.404       .  A
C192        C198   1.410       .  A
C194        C195   1.401       .  A
C194        H199   1.084       .  S
C195        C196   1.414       .  A
C195       Br203   1.920       .  S
C196        C197   1.408       .  A
C197        C198   1.402       .  A
C197        H200   1.084       .  S
C198       Br204   1.920       .  S
C205        C206   1.434       .  A
C205        C210   1.422       .  A
C206        C207   1.399       .  A
C206       Br222   1.913       .  S
C207        C208   1.393       .  A
C207        H211   1.084       .  S
C208        C212   1.473       .  S
C208        C209   1.398       .  A
C209        C210   1.395       .  A
C209       Br221   1.920       .  S
C210        H213   1.075       .  S
C212        C214   1.404       .  A
C212        C218   1.405       .  A
C214        C215   1.399       .  A
C214        H219   1.084       .  S
C215        C216   1.409       .  A
C215       Br223   1.921       .  S
C216        C217   1.403       .  A
C217        C218   1.393       .  A
C217        H220   1.085       .  S
C218       Br224   1.919       .  S
C225        C226   1.419       .  A
C225        C230   1.407       .  A
C226        C227   1.405       .  A
C226       Br242   1.922       .  S
C227        C228   1.403       .  A
C227        H231   1.084       .  S
C228        C232   1.499       .  S
C228        C229   1.413       .  A
C229        C230   1.410       .  A
C229       Br241   1.917       .  S
C230        H233   1.083       .  S
C232        C234   1.396       .  A
C232        C238   1.405       .  A
C234        C235   1.407       .  A
C234        H239   1.085       .  S
C235        C236   1.442       .  A
C235       Br243   1.923       .  S
C236        C237   1.425       .  A
C237        C238   1.406       .  A
C237        H240   1.083       .  S
C238       Br244   1.917       .  S
C245        C246   1.417       .  A
C245        C250   1.408       .  A
C246        C247   1.406       .  A
C246       Br262   1.920       .  S
C247        C248   1.405       .  A
C247        H251   1.083       .  S
C248        C252   1.503       .  S
C248        C249   1.414       .  A
C249        C250   1.409       .  A
C249       Br261   1.919       .  S
C250        H253   1.083       .  S
C252        C254   1.399       .  A
C252        C258   1.406       .  A
C254        C255   1.407       .  A
C254        H259   1.084       .  S
C255        C256   1.434       .  A
C255       Br263   1.914       .  S
C256        C257   1.425       .  A
C257        C258   1.407       .  A
C257        H260   1.077       .  S
C258       Br264   1.919       .  S
C265        C266   1.416       .  A
C265        C270   1.407       .  A
C266        C267   1.399       .  A
C266       Br282   1.920       .  S
C267        C268   1.403       .  A
C267        H271   1.084       .  S
C268        C272   1.497       .  S
C268        C269   1.415       .  A
C269        C270   1.409       .  A
C269       Br281   1.919       .  S
C270        H273   1.083       .  S
C272        C274   1.400       .  A
C272        C278   1.406       .  A
C274        C275   1.402       .  A
C274        H279   1.084       .  S
C275        C276   1.431       .  A
C275       Br283   1.918       .  S
C276        C277   1.427       .  A
C277        C278   1.404       .  A
C277        H280   1.077       .  S
C278       Br284   1.922       .  S
C285        C286   1.435       .  A
C285        C290   1.425       .  A
C286        C287   1.399       .  A
C286       Br302   1.925       .  S
C287        C288   1.395       .  A
C287        H291   1.084       .  S
C288        C292   1.483       .  S
C288        C289   1.400       .  A
C289        C290   1.404       .  A
C289       Br301   1.918       .  S
C290        H293   1.075       .  S
C292        C294   1.401       .  A
C292        C298   1.408       .  A
C294        C295   1.402       .  A
C294        H299   1.083       .  S
C295        C296   1.416       .  A
C295       Br303   1.921       .  S
C296        C297   1.406       .  A
C297        C298   1.402       .  A
C297        H300   1.082       .  S
C298       Br304   1.918       .  S
C305        C306   1.413       .  A
C305        C310   1.408       .  A
C306        C307   1.404       .  A
C306       Br322   1.921       .  S
C307        C308   1.405       .  A
C307        H311   1.083       .  S
C308        C312   1.482       .  S
C308        C309   1.406       .  A
C309        C310   1.397       .  A
C309       Br321   1.920       .  S
C310        H313   1.084       .  S
C312        C314   1.394       .  A
C312        C318   1.402       .  A
C314        C315   1.399       .  A
C314        H319   1.084       .  S
C315        C316   1.435       .  A
C315       Br323   1.923       .  S
C316        C317   1.422       .  A
C317        C318   1.401       .  A
C317        H320   1.077       .  S
C318       Br324   1.920       .  S
C325        C326   1.439       .  A
C325        C330   1.423       .  A
C326        C327   1.401       .  A
C326       Br342   1.929       .  S
C327        C328   1.395       .  A
C327        H331   1.085       .  S
C328        C332   1.477       .  S
C328        C329   1.398       .  A
C329        C330   1.393       .  A
C329       Br341   1.919       .  S
C330        H333   1.083       .  S
C332        C334   1.404       .  A
C332        C338   1.407       .  A
C334        C335   1.400       .  A
C334        H339   1.083       .  S
C335        C336   1.407       .  A
C335       Br343   1.919       .  S
C336        C337   1.403       .  A
C337        C338   1.397       .  A
C337        H340   1.082       .  S
C338       Br344   1.920       .  S
C345        C346   1.435       .  A
C345        C350   1.422       .  A
C346        C347   1.403       .  A
C346       Br362   1.914       .  S
C347        C348   1.394       .  A
C347        H351   1.084       .  S
C348        C352   1.481       .  S
C348        C349   1.400       .  A
C349        C350   1.399       .  A
C349       Br361   1.920       .  S
C350        H353   1.077       .  S
C352        C354   1.400       .  A
C352        C358   1.408       .  A
C354        C355   1.400       .  A
C354        H359   1.084       .  S
C355        C356   1.419       .  A
C355       Br363   1.923       .  S
C356        C357   1.405       .  A
C357        C358   1.400       .  A
C357        H360   1.084       .  S
C358       Br364   1.918       .  S
C365        C366   1.421       .  A
C365        C370   1.406       .  A
C366        C367   1.396       .  A
C366       Br382   1.925       .  S
C367        C368   1.395       .  A
C367        H371   1.083       .  S
C368        C372   1.484       .  S
C368        C369   1.411       .  A
C369        C370   1.409       .  A
C369       Br381   1.917       .  S
C370        H373   1.082       .  S
C372        C374   1.394       .  A
C372        C378   1.401       .  A
C374        C375   1.401       .  A
C374        H379   1.084       .  S
C375        C376   1.434       .  A
C375       Br383   1.915       .  S
C376        C377   1.425       .  A
C377        C378   1.402       .  A
C377        H380   1.078       .  S
C378       Br384   1.919       .  S
C385        C386   1.437       .  A
C385        C390   1.425       .  A
C386        C387   1.404       .  A
C386       Br402   1.924       .  S
C387        C388   1.396       .  A
C387        H391   1.084       .  S
C388        C392   1.486       .  S
C388        C389   1.399       .  A
C389        C390   1.402       .  A
C389       Br401   1.920       .  S
C390        H393   1.077       .  S
C392        C394   1.404       .  A
C392        C398   1.405       .  A
C394        C395   1.405       .  A
C394        H399   1.083       .  S
C395        C396   1.417       .  A
C395       Br403   1.921       .  S
C396        C397   1.410       .  A
C397        C398   1.399       .  A
C397        H400   1.082       .  S
C398       Br404   1.918       .  S
C405        C406   1.436       .  A
C405        C410   1.421       .  A
C406        C407   1.404       .  A
C406       Br422   1.927       .  S
C407        C408   1.399       .  A
C407        H411   1.085       .  S
C408        C412   1.491       .  S
C408        C409   1.403       .  A
C409        C410   1.399       .  A
C409       Br421   1.920       .  S
C410        H413   1.081       .  S
C412        C414   1.403       .  A
C412        C418   1.408       .  A
C414        C415   1.403       .  A
C414        H419   1.084       .  S
C415        C416   1.420       .  A
C415       Br423   1.923       .  S
C416        C417   1.410       .  A
C417        C418   1.401       .  A
C417        H420   1.083       .  S
C418       Br424   1.919       .  S
C425        C426   1.432       .  A
C425        C430   1.422       .  A
C426        C427   1.404       .  A
C426       Br442   1.914       .  S
C427        C428   1.397       .  A
C427        H431   1.083       .  S
C428        C432   1.484       .  S
C428        C429   1.402       .  A
C429        C430   1.398       .  A
C429       Br441   1.920       .  S
C430        H433   1.083       .  S
C432        C434   1.402       .  A
C432        C438   1.411       .  A
C434        C435   1.398       .  A
C434        H439   1.083       .  S
C435        C436   1.408       .  A
C435       Br443   1.915       .  S
C436        C437   1.403       .  A
C437        C438   1.402       .  A
C437        H440   1.085       .  S
C438       Br444   1.918       .  S
C445        C446   1.417       .  A
C445        C450   1.410       .  A
C446        C447   1.402       .  A
C446       Br462   1.922       .  S
C447        C448   1.401       .  A
C447        H451   1.083       .  S
C448        C452   1.475       .  S
C448        C449   1.403       .  A
C449        C450   1.397       .  A
C449       Br461   1.920       .  S
C450        H453   1.083       .  S
C452        C454   1.390       .  A
C452        C458   1.399       .  A
C454        C455   1.399       .  A
C454        H459   1.085       .  S
C455        C456   1.445       .  A
C455       Br463   1.933       .  S
C456        C457   1.420       .  A
C457        C458   1.398       .  A
C457        H460   1.084       .  S
C458       Br464   1.917       .  S
C465        C466   1.413       .  A
C465        C470   1.404       .  A
C466        C467   1.404       .  A
C466       Br482   1.918       .  S
C467        C468   1.403       .  A
C467        H471   1.084       .  S
C468        C472   1.477       .  S
C468        C469   1.405       .  A
C469        C470   1.396       .  A
C469       Br481   1.919       .  S
C470        H473   1.084       .  S
C472        C474   1.395       .  A
C472        C478   1.397       .  A
C474        C475   1.402       .  A
C474        H479   1.084       .  S
C475        C476   1.436       .  A
C475       Br483   1.924       .  S
C476        C477   1.423       .  A
C477        C478   1.396       .  A
C477        H480   1.076       .  S
C478       Br484   1.920       .  S
C485        C486   1.442       .  A
C485        C490   1.420       .  A
C486        C487   1.401       .  A
C486       Br502   1.930       .  S
C487        C488   1.394       .  A
C487        H491   1.084       .  S
C488        C492   1.478       .  S
C488        C489   1.401       .  A
C489        C490   1.396       .  A
C489       Br501   1.919       .  S
C490        H493   1.083       .  S
C492        C494   1.403       .  A
C492        C498   1.406       .  A
C494        C495   1.399       .  A
C494        H499   1.084       .  S
C495        C496   1.411       .  A
C495       Br503   1.918       .  S
C496        C497   1.406       .  A
C497        C498   1.398       .  A
C497        H500   1.083       .  S
C498       Br504   1.920       .  S
C505        C506   1.420       .  A
C505        C510   1.411       .  A
C506        C507   1.401       .  A
C506       Br522   1.922       .  S
C507        C508   1.400       .  A
C507        H511   1.084       .  S
C508        C512   1.495       .  S
C508        C509   1.411       .  A
C509        C510   1.411       .  A
C509       Br521   1.918       .  S
C510        H513   1.083       .  S
C512        C514   1.394       .  A
C512        C518   1.403       .  A
C514        C515   1.404       .  A
C514        H519   1.085       .  S
C515        C516   1.444       .  A
C515       Br523   1.930       .  S
C516        C517   1.424       .  A
C517        C518   1.407       .  A
C517        H520   1.083       .  S
C518       Br524   1.917       .  S
C525        C526   1.437       .  A
C525        C530   1.418       .  A
C526        C527   1.402       .  A
C526       Br542   1.924       .  S
C527        C528   1.395       .  A
C527        H531   1.083       .  S
C528        C532   1.483       .  S
C528        C529   1.404       .  A
C529        C530   1.395       .  A
C529       Br541   1.922       .  S
C530        H533   1.076       .  S
C532        C534   1.400       .  A
C532        C538   1.413       .  A
C534        C535   1.391       .  A
C534        H539   1.084       .  S
C535        C536   1.408       .  A
C535       Br543   1.916       .  S
C536        C537   1.403       .  A
C537        C538   1.405       .  A
C537        H540   1.083       .  S
C538       Br544   1.918       .  S
C545        C546   1.419       .  A
C545        C550   1.407       .  A
C546        C547   1.400       .  A
C546       Br562   1.920       .  S
C547        C548   1.401       .  A
C547        H551   1.083       .  S
C548        C552   1.482       .  S
C548        C549   1.408       .  A
C549        C550   1.395       .  A
C549       Br561   1.921       .  S
C550        H553   1.081       .  S
C552        C554   1.399       .  A
C552        C558   1.400       .  A
C554        C555   1.403       .  A
C554        H559   1.083       .  S
C555        C556   1.436       .  A
C555       Br563   1.926       .  S
C556        C557   1.424       .  A
C557        C558   1.394       .  A
C557        H560   1.081       .  S
C558       Br564   1.921       .  S
C565        C566   1.441       .  A
C565        C570   1.427       .  A
C566        C567   1.405       .  A
C566       Br582   1.926       .  S
C567        C568   1.396       .  A
C567        H571   1.084       .  S
C568        C572   1.484       .  S
C568        C569   1.397       .  A
C569        C570   1.398       .  A
C569       Br581   1.918       .  S
C570        H573   1.083       .  S
C572        C574   1.404       .  A
C572        C578   1.407       .  A
C574        C575   1.404       .  A
C574        H579   1.083       .  S
C575        C576   1.413       .  A
C575       Br583   1.918   1_554  S
C576        C577   1.403       .  A
C577        C578   1.399       .  A
C577        H580   1.078       .  S
C578       Br584   1.918       .  S
C585        C586   1.416       .  A
C585        C590   1.407       .  A
C586        C587   1.407       .  A
C586       Br602   1.917       .  S
C587        C588   1.407       .  A
C587        H591   1.084       .  S
C588        C592   1.495       .  S
C588        C589   1.411       .  A
C589        C590   1.399       .  A
C589       Br601   1.915       .  S
C590        H593   1.084       .  S
C592        C594   1.398       .  A
C592        C598   1.407       .  A
C594        C595   1.403       .  A
C594        H599   1.084       .  S
C595        C596   1.436       .  A
C595       Br603   1.926       .  S
C596        C597   1.420       .  A
C597        C598   1.407       .  A
C597        H600   1.080       .  S
C598       Br604   1.918       .  S
C605        C606   1.433       .  A
C605        C610   1.423       .  A
C606        C607   1.401       .  A
C606       Br622   1.918       .  S
C607        C608   1.397       .  A
C607        H611   1.084       .  S
C608        C612   1.488       .  S
C608        C609   1.403       .  A
C609        C610   1.400       .  A
C609       Br621   1.920       .  S
C610        H613   1.077       .  S
C612        C614   1.406       .  A
C612        C618   1.407       .  A
C614        C615   1.405       .  A
C614        H619   1.084       .  S
C615        C616   1.416       .  A
C615       Br623   1.921       .  S
C616        C617   1.407       .  A
C617        C618   1.396       .  A
C617        H620   1.084       .  S
C618       Br624   1.921       .  S
C625        C626   1.419       .  A
C625        C630   1.410       .  A
C626        C627   1.401       .  A
C626       Br642   1.920       .  S
C627        C628   1.399       .  A
C627        H631   1.084       .  S
C628        C632   1.476       .  S
C628        C629   1.404       .  A
C629        C630   1.398       .  A
C629       Br641   1.920       .  S
C630        H633   1.083       .  S
C632        C634   1.394       .  A
C632        C638   1.398       .  A
C634        C635   1.401       .  A
C634        H639   1.084       .  S
C635        C636   1.434       .  A
C635       Br643   1.917       .  S
C636        C637   1.426       .  A
C637        C638   1.395       .  A
C637        H640   1.077       .  S
C638       Br644   1.921       .  S
C645        C646   1.415       .  A
C645        C650   1.404       .  A
C646        C647   1.409       .  A
C646       Br662   1.920       .  S
C647        C648   1.408       .  A
C647        H651   1.083       .  S
C648        C652   1.494       .  S
C648        C649   1.410       .  A
C649        C650   1.395       .  A
C649       Br661   1.918       .  S
C650        H653   1.083       .  S
C652        C654   1.398       .  A
C652        C658   1.405       .  A
C654        C655   1.403       .  A
C654        H659   1.083       .  S
C655        C656   1.435       .  A
C655       Br663   1.921       .  S
C656        C657   1.423       .  A
C657        C658   1.404       .  A
C657        H660   1.074       .  S
C658       Br664   1.920       .  S
C665        C666   1.410       .  A
C665        C670   1.402       .  A
C666        C667   1.400       .  A
C666       Br682   1.920       .  S
C667        C668   1.404       .  A
C667        H671   1.083       .  S
C668        C672   1.481       .  S
C668        C669   1.410       .  A
C669        C670   1.398       .  A
C669       Br681   1.921       .  S
C670        H673   1.083       .  S
C672        C674   1.396       .  A
C672        C678   1.402       .  A
C674        C675   1.399       .  A
C674        H679   1.084       .  S
C675        C676   1.434       .  A
C675       Br683   1.924       .  S
C676        C677   1.422       .  A
C677        C678   1.396       .  A
C677        H680   1.077       .  S
C678       Br684   1.921       .  S
C685        C686   1.417       .  A
C685        C690   1.411       .  A
C686        C687   1.402       .  A
C686       Br702   1.921       .  S
C687        C688   1.402       .  A
C687        H691   1.083       .  S
C688        C692   1.482       .  S
C688        C689   1.405       .  A
C689        C690   1.400       .  A
C689       Br701   1.920       .  S
C690        H693   1.083       .  S
C692        C694   1.393       .  A
C692        C698   1.401       .  A
C694        C695   1.402       .  A
C694        H699   1.085       .  S
C695        C696   1.445       .  A
C695       Br703   1.932       .  S
C696        C697   1.422       .  A
C697        C698   1.399       .  A
C697        H700   1.084       .  S
C698       Br704   1.918       .  S
C705        C706   1.421       .  A
C705        C710   1.405       .  A
C706        C707   1.406       .  A
C706       Br722   1.919       .  S
C707        C708   1.404       .  A
C707        H711   1.084       .  S
C708        C712   1.500       .  S
C708        C709   1.415       .  A
C709        C710   1.403       .  A
C709       Br721   1.921       .  S
C710        H713   1.084       .  S
C712        C714   1.396       .  A
C712        C718   1.407       .  A
C714        C715   1.402       .  A
C714        H719   1.087       .  S
C715        C716   1.439       .  A
C715       Br723   1.917       .  S
C716        C717   1.426       .  A
C717        C718   1.406       .  A
C717        H720   1.085       .  S
C718       Br724   1.919       .  S
C725        C726   1.438       .  A
C725        C730   1.421       .  A
C726        C727   1.406       .  A
C726       Br742   1.922       .  S
C727        C728   1.396       .  A
C727        H731   1.084       .  S
C728        C732   1.488       .  S
C728        C729   1.402       .  A
C729        C730   1.401       .  A
C729       Br741   1.918       .  S
C730        H733   1.077       .  S
C732        C734   1.405       .  A
C732        C738   1.409       .  A
C734        C735   1.403       .  A
C734        H739   1.084       .  S
C735        C736   1.409       .  A
C735       Br743   1.917       .  S
C736        C737   1.404       .  A
C737        C738   1.405       .  A
C737        H740   1.080       .  S
C738       Br744   1.917       .  S
C745        C746   1.417       .  A
C745        C750   1.410       .  A
C746        C747   1.402       .  A
C746       Br762   1.921       .  S
C747        C748   1.402       .  A
C747        H751   1.084       .  S
C748        C752   1.479       .  S
C748        C749   1.404       .  A
C749        C750   1.399       .  A
C749       Br761   1.919       .  S
C750        H753   1.083       .  S
C752        C754   1.396       .  A
C752        C758   1.400       .  A
C754        C755   1.402       .  A
C754        H759   1.084       .  S
C755        C756   1.436       .  A
C755       Br763   1.925       .  S
C756        C757   1.420       .  A
C757        C758   1.397       .  A
C757        H760   1.074       .  S
C758       Br764   1.919       .  S
