geometry optimzed in LAMMPS
_audit_creation_date              2020-11-30 
_audit_creation_method            'lammps2cif' 
_symmetry_space_group_name_H-M    'P1' 
_symmetry_Int_Tables_number       1 
_symmetry_cell_setting            triclinic 
loop_ 
_symmetry_equiv_pos_as_xyz 
  x,y,z 
_cell_length_a                    40.31597421 
_cell_length_b                    40.64053809831845 
_cell_length_c                    39.61055330316499 
_cell_angle_alpha                 89.62958004924533 
_cell_angle_beta                  90.10690283069076 
_cell_angle_gamma                 90.040848181265 
loop_ 
_atom_site_label 
_atom_site_type_symbol 
_atom_site_fract_x 
_atom_site_fract_y 
_atom_site_fract_z 
_atom_site_charge 
C1          C  0.36927851  0.35945709  0.12769231     0.86100
C2          C  0.34842037  0.38210336  0.15052298    -0.54100
C3          C  0.32922496  0.36572849  0.17325796     0.09100
C4          C  0.33298779  0.32825363  0.17188837     0.20000
C5          C  0.38956384  0.33855714  0.15356002    -0.54800
C6          C  0.37037701  0.32191803  0.17618503     0.09200
C7          C  0.34489662  0.33455043  0.11213276    -0.54300
C8          C  0.32521863  0.31872293  0.13505139     0.09700
H9          H  0.34880731  0.40876767  0.14897290     0.14300
H10         H  0.31748766  0.31514000  0.19087504     0.00000
H11         H  0.41632939  0.33695499  0.15492149     0.14600
H12         H  0.34520159  0.32865474  0.08553837     0.14400
C13         C  0.35818126  0.19003603  0.32560156     0.86100
C14         C  0.33233002  0.17111613  0.30441979    -0.54100
C15         C  0.31404284  0.19041289  0.28310568     0.09100
C16         C  0.32217533  0.22746837  0.28625770     0.20000
C17         C  0.37840197  0.21106946  0.30066283    -0.54800
C18         C  0.35980894  0.23061630  0.28016993     0.09200
C19         C  0.33648837  0.21566245  0.34468266    -0.54300
C20         C  0.31751285  0.23486913  0.32399002     0.09700
H21         H  0.32780341  0.14500001  0.30770208     0.14300
H22         H  0.30704627  0.24353364  0.26943625     0.00000
H23         H  0.40532937  0.21067521  0.29952013     0.14600
H24         H  0.33468617  0.21861816  0.37170653     0.14400
C25         C  0.17467493  0.18885175  0.14065799     0.86100
C26         C  0.20537763  0.20320061  0.12160926    -0.54100
C27         C  0.22641714  0.22090894  0.14137037     0.09100
C28         C  0.21525930  0.22274516  0.17850491     0.20000
C29         C  0.19094242  0.16870736  0.16972373    -0.54800
C30         C  0.21133559  0.18669217  0.19009125     0.09200
C31         C  0.15874481  0.21928457  0.15745799    -0.54300
C32         C  0.17986033  0.23682684  0.17734119     0.09700
H33         H  0.21150445  0.19915492  0.09539190     0.14300
H34         H  0.23237345  0.23724878  0.19466463     0.00000
H35         H  0.18678756  0.14264290  0.17382847     0.14600
H36         H  0.13303130  0.22637623  0.15368233     0.14400
C37         C  0.18894859  0.38431227  0.31368445     0.86100
C38         C  0.21130251  0.36159713  0.33574422    -0.54100
C39         C  0.23165637  0.34175255  0.31771017     0.09100
C40         C  0.22719879  0.34505517  0.27941366     0.20000
C41         C  0.21295068  0.40221812  0.28943891    -0.54800
C42         C  0.23238590  0.38173158  0.27110272     0.09200
C43         C  0.16993194  0.35907482  0.29172550    -0.54300
C44         C  0.18998078  0.33859338  0.27354165     0.09700
H45         H  0.21014395  0.35943623  0.36300727     0.14300
H46         H  0.24375381  0.32847599  0.26491756     0.00000
H47         H  0.21393991  0.42880011  0.28660495     0.14600
H48         H  0.14327564  0.35833892  0.28994848     0.14400
C49         C  0.35486416  0.18496285  0.63084644     0.86100
C50         C  0.33560858  0.20962057  0.60870772    -0.54100
C51         C  0.31781994  0.23213248  0.62629082     0.09100
C52         C  0.32240988  0.22921834  0.66487029     0.20000
C53         C  0.37694736  0.20654879  0.65382837    -0.54800
C54         C  0.36019896  0.22961238  0.67164046     0.09200
C55         C  0.32935845  0.17056668  0.65650388    -0.54300
C56         C  0.31177457  0.19391584  0.67377736     0.09700
H57         H  0.33628527  0.20934068  0.58129610     0.14300
H58         H  0.30852524  0.24816063  0.67896641     0.00000
H59         H  0.40344647  0.20305329  0.65690258     0.14600
H60         H  0.32766192  0.14477405  0.66302912     0.14400
C61         C  0.17890324  0.19848804  0.82846075     0.86100
C62         C  0.15983962  0.22083217  0.80286083    -0.54100
C63         C  0.17971443  0.24064442  0.78374786     0.09100
C64         C  0.21683778  0.23609072  0.79173081     0.20000
C65         C  0.20281434  0.17947037  0.80492623    -0.54800
C66         C  0.22336367  0.19917916  0.78640883     0.09200
C67         C  0.20085733  0.22231355  0.84902901    -0.54300
C68         C  0.22070964  0.24224166  0.82998440     0.09700
H69         H  0.13361715  0.21838478  0.79731306     0.14300
H70         H  0.23254846  0.25136761  0.77546911     0.00000
H71         H  0.20278781  0.15301133  0.80209837     0.14600
H72         H  0.20113113  0.22276195  0.87643893     0.14400
C73         C  0.18270709  0.37138534  0.63270738     0.86100
C74         C  0.16218389  0.34589261  0.65306981    -0.54100
C75         C  0.18064307  0.32173805  0.66781922     0.09100
C76         C  0.21782898  0.32601724  0.66208344     0.20000
C77         C  0.20775315  0.38476327  0.65991891    -0.54800
C78         C  0.22618424  0.36046116  0.67580514     0.09200
C79         C  0.20567851  0.35229701  0.60868879    -0.54300
C80         C  0.22414821  0.32883617  0.62410477     0.09700
H81         H  0.13543858  0.34730330  0.65593095     0.14300
H82         H  0.23121962  0.30527505  0.67367291     0.00000
H83         H  0.21170961  0.41037346  0.66505225     0.14600
H84         H  0.20805453  0.35789639  0.58194379     0.14400
C85         C  0.37090367  0.36076109  0.82027540     0.86100
C86         C  0.35539087  0.33750044  0.84684241    -0.54100
C87         C  0.33732031  0.31250663  0.83360490     0.09100
C88         C  0.33804414  0.31197881  0.79502051     0.20000
C89         C  0.39139827  0.33847863  0.79631839    -0.54800
C90         C  0.37394647  0.31314590  0.78304900     0.09200
C91         C  0.34147181  0.37121866  0.79704471    -0.54300
C92         C  0.32335477  0.34544796  0.78392110     0.09700
H93         H  0.35465355  0.34330616  0.87356261     0.14300
H94         H  0.32700444  0.28909440  0.78688925     0.00000
H95         H  0.41604452  0.34414403  0.78715604     0.14600
H96         H  0.33700479  0.39648373  0.78966084     0.14400
N97         N  0.48188951  0.49572408  0.90920788    -0.06500
N98         N  0.47640766  0.47503707  0.88420984    -0.58600
N99         N  0.45462408  0.56718726  0.93984363    -0.06100
N100        N  0.43108233  0.58935372  0.93550075    -0.60700
N101        N  0.47776560  0.57065556  0.91679425    -0.05700
N102        N  0.47059244  0.59539224  0.89650623    -0.58600
N103        N  0.45885375  0.49259123  0.93246059    -0.05400
N104        N  0.43720603  0.46984983  0.92378611    -0.61100
C105        C  0.44863824  0.45884019  0.89388172     0.95700
C106        C  0.44155335  0.60709364  0.90858138     0.95500
N107        N  0.47697345  0.55914311  0.04224596    -0.06600
N108        N  0.46996299  0.58093816  0.06576025    -0.59200
N109        N  0.45967561  0.48493091  0.01131275    -0.04800
N110        N  0.43863139  0.46042113  0.01511658    -0.60400
N111        N  0.48251090  0.48400598  0.03504392    -0.06700
N112        N  0.47740260  0.45874698  0.05551804    -0.59400
N113        N  0.45427747  0.55981040  0.01839317    -0.04400
N114        N  0.43145633  0.58206289  0.02507994    -0.60500
Mn115      Mn  0.45590331  0.52602930  0.97555572     1.18400
C116        C  0.44141715  0.59495835  0.05479483     0.97800
C117        C  0.45021366  0.44399255  0.04245122     0.98500
N118        N  0.55516154  0.57536597  0.91608732    -0.06700
N119        N  0.56129411  0.59905045  0.89403703    -0.63000
N120        N  0.58300839  0.50055365  0.93374251    -0.05500
N121        N  0.60763040  0.48087457  0.92563726    -0.63700
N122        N  0.56032568  0.50071719  0.90985830    -0.06200
N123        N  0.56924302  0.48122050  0.88490201    -0.63300
N124        N  0.57775284  0.57516690  0.94001263    -0.05100
N125        N  0.59967624  0.59867236  0.93472897    -0.64000
Mn126      Mn  0.51870364  0.53557317  0.91200159     1.10700
C127        C  0.58891744  0.61370652  0.90618290     0.99000
C128        C  0.59890380  0.46900560  0.89512318     0.99100
N129        N  0.56056245  0.48982078  0.03614493    -0.06200
N130        N  0.56989092  0.46663636  0.05765021    -0.61600
N131        N  0.57763713  0.56846782  0.01935610    -0.05500
N132        N  0.59880326  0.59174720  0.02792106    -0.58300
N133        N  0.55513749  0.56435996  0.04303916    -0.06800
N134        N  0.56064431  0.58465038  0.06832810    -0.61100
N135        N  0.58318406  0.49396874  0.01263326    -0.05800
N136        N  0.60826097  0.47378512  0.01755137    -0.58300
Mn137      Mn  0.51869444  0.52416024  0.04021873     1.20200
Mn138      Mn  0.58110414  0.53466032  0.97646039     1.10100
Cl139      Cl  0.51862777  0.53003615  0.97606868    -0.86300
C140        C  0.59968418  0.45691194  0.04561415     0.96000
C141        C  0.58782353  0.60162102  0.05841127     0.95800
C142        C  0.35742757  0.69245176  0.12137726     0.86100
C143        C  0.33061746  0.71311574  0.10215251    -0.54100
C144        C  0.31152017  0.73233401  0.12266925     0.09100
C145        C  0.31973708  0.72794330  0.16028036     0.20000
C146        C  0.37647496  0.71741891  0.14305858    -0.54800
C147        C  0.35688531  0.73605140  0.16318872     0.09200
C148        C  0.33657099  0.67235246  0.14721590    -0.54300
C149        C  0.31631550  0.69057130  0.16721084     0.09700
H150        H  0.32549876  0.71194524  0.07551438     0.14300
H151        H  0.30451127  0.74354540  0.17661162     0.00000
H152        H  0.40327867  0.72012252  0.14249394     0.14600
H153        H  0.33829755  0.64581316  0.14996544     0.14400
C154        C  0.18101804  0.88281723  0.13643748     0.86100
C155        C  0.16023331  0.85929295  0.15881704    -0.54100
C156        C  0.17849914  0.83809932  0.17811146     0.09100
C157        C  0.21636854  0.84175357  0.17237366     0.20000
C158        C  0.20639700  0.89943673  0.16012489    -0.54800
C159        C  0.22473484  0.87807806  0.17914077     0.09200
C160        C  0.20203470  0.85827104  0.11527350    -0.54300
C161        C  0.22158836  0.83766062  0.13398613     0.09700
H162        H  0.13332717  0.85864572  0.15850696     0.14300
H163        H  0.23127464  0.82435772  0.18745686     0.00000
H164        H  0.20940037  0.92593884  0.16174646     0.14600
H165        H  0.20004146  0.85521386  0.08819986     0.14400
C166        C  0.17771893  0.69363349  0.30980209     0.86100
C167        C  0.15506875  0.70880324  0.28194663    -0.54100
C168        C  0.17187247  0.72381207  0.25641239     0.09100
C169        C  0.20952327  0.72128036  0.26045114     0.20000
C170        C  0.20075173  0.66999756  0.29006760    -0.54800
C171        C  0.21836926  0.68507373  0.26525517     0.09200
C172        C  0.20015318  0.72280159  0.32054592    -0.54300
C173        C  0.21734590  0.73785777  0.29457519     0.09700
H174        H  0.12826261  0.71028691  0.28326948     0.14300
H175        H  0.22135959  0.72986504  0.23757642     0.00000
H176        H  0.20380935  0.64408903  0.29565265     0.14600
H177        H  0.20271711  0.72947704  0.34682994     0.14400
C178        C  0.37360404  0.86838113  0.31272640     0.86100
C179        C  0.35013826  0.84143850  0.32891224    -0.54100
C180        C  0.32876837  0.82699891  0.30607280     0.09100
C181        C  0.33344546  0.84091996  0.27027202     0.20000
C182        C  0.39099762  0.84907784  0.28437672    -0.54800
C183        C  0.36976487  0.83451010  0.26245732     0.09200
C184        C  0.34893325  0.89235525  0.29544642    -0.54300
C185        C  0.32826468  0.87767254  0.27310285     0.09700
H186        H  0.35149944  0.83295658  0.35466576     0.14300
H187        H  0.31718122  0.83115773  0.25057105     0.00000
H188        H  0.41739724  0.84419729  0.28387557     0.14600
H189        H  0.34786932  0.91853828  0.30067187     0.14400
N190        N  0.47743861  0.06369834  0.54160484    -0.06500
N191        N  0.46903991  0.08595454  0.56418066    -0.58600
N192        N  0.46149336  0.98723262  0.51566476    -0.06100
N193        N  0.43907903  0.96458104  0.52260328    -0.60700
N194        N  0.48394340  0.98856103  0.53969689    -0.05700
N195        N  0.47722817  0.96661203  0.56335318    -0.58600
N196        N  0.45472442  0.06181543  0.51782116    -0.05400
N197        N  0.43031910  0.08255894  0.52374584    -0.61100
C198        C  0.43981197  0.09772949  0.55242164     0.95700
C199        C  0.44930958  0.95151419  0.55223362     0.95500
N200        N  0.48608760  0.99235842  0.41304674    -0.06600
N201        N  0.48145747  0.97030253  0.38912830    -0.59200
N202        N  0.45600665  0.06437745  0.43920711    -0.04800
N203        N  0.43191758  0.08575520  0.43415604    -0.60400
N204        N  0.47896793  0.06737433  0.41589598    -0.06700
N205        N  0.47090865  0.09086542  0.39433115    -0.59400
N206        N  0.46296553  0.98950527  0.43627745    -0.04400
N207        N  0.44230697  0.96547455  0.42865551    -0.60500
Mn208      Mn  0.45803525  0.02554272  0.47716491     1.18400
C209        C  0.45428401  0.95332486  0.39942512     0.97800
C210        C  0.44177352  0.10237289  0.40636069     0.98500
N211        N  0.56186754  0.99537329  0.54057822    -0.06700
N212        N  0.56884292  0.97092281  0.56139825    -0.63000
N213        N  0.57847447  0.07341299  0.52041590    -0.05500
N214        N  0.59908805  0.09743147  0.52821101    -0.63700
N215        N  0.55534231  0.07031681  0.54355726    -0.06200
N216        N  0.55981574  0.09208053  0.56770367    -0.63300
N217        N  0.58510677  0.99831689  0.51754065    -0.05100
N218        N  0.60825506  0.97581832  0.52218557    -0.64000
Mn219      Mn  0.51969689  0.02945054  0.54238540     1.10700
C220        C  0.59769333  0.95864958  0.54955388     0.99000
C221        C  0.58707142  0.10886084  0.55769845     0.99100
N222        N  0.55645867  0.07543148  0.41741236    -0.06200
N223        N  0.56006052  0.10041833  0.39630652    -0.61600
N224        N  0.58705946  0.00205300  0.43849333    -0.05500
N225        N  0.61211851  0.98225602  0.43210914    -0.58300
N226        N  0.56467503  0.00030434  0.41441678    -0.06800
N227        N  0.57422172  0.97921149  0.39113461    -0.61100
N228        N  0.57886276  0.07688895  0.44151185    -0.05800
N229        N  0.59808819  0.10285729  0.43733922    -0.58300
Mn230      Mn  0.52158889  0.03378087  0.41403003     1.20200
Mn231      Mn  0.58332149  0.03776038  0.47950220     1.10100
Cl232      Cl  0.52068222  0.03152780  0.47825802    -0.86300
C233        C  0.58586066  0.11759292  0.40929619     0.96000
C234        C  0.60382045  0.96783711  0.40266230     0.95800
C235        C  0.68441040  0.38491186  0.81277070     0.86100
C236        C  0.70345278  0.40620002  0.78687456    -0.54100
C237        C  0.72839109  0.39020889  0.77117046     0.09100
C238        C  0.73294346  0.35472825  0.78344165     0.20000
C239        C  0.67373311  0.35401251  0.79238624    -0.54800
C240        C  0.69943749  0.33787547  0.77641821     0.09200
C241        C  0.71077066  0.37019636  0.83727175    -0.54300
C242        C  0.73586299  0.35375692  0.82190680     0.09700
H243        H  0.69617971  0.43106923  0.77992296     0.14300
H244        H  0.75576078  0.34556378  0.77294301     0.00000
H245        H  0.64883849  0.34507488  0.79093763     0.14600
H246        H  0.70784752  0.37022394  0.86448739     0.14400
C247        C  0.86331865  0.37199645  0.62461396     0.86100
C248        C  0.84012443  0.34854985  0.60547090    -0.54100
C249        C  0.81845498  0.33201973  0.62561458     0.09100
C250        C  0.82165245  0.34049720  0.66323555     0.20000
C251        C  0.84041072  0.39457681  0.64550221    -0.54800
C252        C  0.81884569  0.37838376  0.66622923     0.09200
C253        C  0.87996979  0.34942771  0.65216145    -0.54300
C254        C  0.85778652  0.33275663  0.67205137     0.09700
H255        H  0.84132830  0.34476558  0.57837664     0.14300
H256        H  0.80387457  0.32648831  0.67859174     0.00000
H257        H  0.84067372  0.42116836  0.64316318     0.14600
H258        H  0.90633234  0.34732070  0.65689122     0.14400
C259        C  0.67384568  0.19764692  0.63025642     0.86100
C260        C  0.69674054  0.17582399  0.65301778    -0.54100
C261        C  0.72043202  0.19292647  0.66977776     0.09100
C262        C  0.72014437  0.22943830  0.66172839     0.20000
C263        C  0.66072702  0.22455727  0.65426980    -0.54800
C264        C  0.68510057  0.24130537  0.67116673     0.09200
C265        C  0.69863991  0.21569106  0.60653843    -0.54300
C266        C  0.72211235  0.23325964  0.62344442     0.09700
H267        H  0.69376198  0.14962763  0.65732037     0.14300
H268        H  0.74108470  0.24154320  0.67457048     0.00000
H269        H  0.63460877  0.23000412  0.65628281     0.14600
H270        H  0.69741136  0.21548274  0.57924377     0.14400
C271        C  0.85028988  0.19292688  0.82091169     0.86100
C272        C  0.83414436  0.22026094  0.84247068    -0.54100
C273        C  0.81327096  0.24044052  0.82486835     0.09100
C274        C  0.81094967  0.23169764  0.78698514     0.20000
C275        C  0.82199128  0.17502373  0.80243298    -0.54800
C276        C  0.80133010  0.19521354  0.78483115     0.09200
C277        C  0.86779704  0.21333986  0.79252717    -0.54300
C278        C  0.84686615  0.23310471  0.77415267     0.09700
H279        H  0.83948815  0.22387952  0.86904721     0.14300
H280        H  0.79422752  0.24756488  0.77230056     0.00000
H281        H  0.81959047  0.14840543  0.80195991     0.14600
H282        H  0.89442516  0.21482226  0.78958063     0.14400
C283        C  0.35579485  0.68843477  0.82337226     0.86100
C284        C  0.37592782  0.71234112  0.80143215    -0.54100
C285        C  0.35784824  0.72898043  0.77813144     0.09100
C286        C  0.32064604  0.72036568  0.77877387     0.20000
C287        C  0.32846937  0.71103819  0.83894968    -0.54800
C288        C  0.30981443  0.72761951  0.81527001     0.09200
C289        C  0.33622794  0.66611269  0.79931123    -0.54300
C290        C  0.31814662  0.68249334  0.77575877     0.09700
H291        H  0.40263283  0.71481390  0.80350638     0.14300
H292        H  0.30667475  0.73418556  0.75925038     0.00000
H293        H  0.32398145  0.71462799  0.86556960     0.14600
H294        H  0.33695506  0.63942275  0.80073453     0.14400
C295        C  0.36648246  0.87438956  0.64472519     0.86100
C296        C  0.34864347  0.89701232  0.66974605    -0.54100
C297        C  0.33309181  0.88069119  0.69501397     0.09100
C298        C  0.33548335  0.84317699  0.69218847     0.20000
C299        C  0.38831335  0.85020042  0.66490834    -0.54800
C300        C  0.37183612  0.83375242  0.68933885     0.09200
C301        C  0.33734321  0.85185606  0.63184300    -0.54300
C302        C  0.32066281  0.83509780  0.65735953     0.09700
H303        H  0.34762289  0.92361528  0.66705086     0.14300
H304        H  0.32537354  0.83111590  0.71436266     0.00000
H305        H  0.41408631  0.84511689  0.65889892     0.14600
H306        H  0.33104205  0.84863105  0.60562165     0.14400
C307        C  0.17658375  0.69071315  0.64105286     0.86100
C308        C  0.20607545  0.71140252  0.62575980    -0.54100
C309        C  0.22500181  0.72795316  0.64940660     0.09100
C310        C  0.21241453  0.72091150  0.68558792     0.20000
C311        C  0.19473366  0.66758093  0.66586951    -0.54800
C312        C  0.21389645  0.68316346  0.68890317     0.09200
C313        C  0.15734849  0.71615585  0.66214944    -0.54300
C314        C  0.17616832  0.73203973  0.68536950     0.09700
H315        H  0.21252649  0.71114090  0.59953741     0.14300
H316        H  0.22493248  0.73303747  0.70673476     0.00000
H317        H  0.19526745  0.64102870  0.66288624     0.14600
H318        H  0.13147539  0.72225724  0.65771051     0.14400
C319        C  0.18057421  0.88147580  0.82037983     0.86100
C320        C  0.20341291  0.85621197  0.83854309    -0.54100
C321        C  0.22342754  0.83903863  0.81719183     0.09100
C322        C  0.21700020  0.84706580  0.77979329     0.20000
C323        C  0.20345516  0.90220849  0.79748086    -0.54800
C324        C  0.22245962  0.88413914  0.77634035     0.09200
C325        C  0.16051084  0.85900621  0.79590158    -0.54300
C326        C  0.17969895  0.84080585  0.77473980     0.09700
H327        H  0.20066776  0.84911374  0.86467012     0.14300
H328        H  0.23280011  0.83265293  0.76268089     0.00000
H329        H  0.20599368  0.92872455  0.79959094     0.14600
H330        H  0.13374312  0.85669849  0.79609903     0.14400
C331        C  0.67760358  0.87070623  0.32441298     0.86100
C332        C  0.70676298  0.87866303  0.30006285    -0.54100
C333        C  0.71980957  0.85186786  0.28320339     0.09100
C334        C  0.70152908  0.82000155  0.29346667     0.20000
C335        C  0.65199049  0.85227369  0.30234368    -0.54800
C336        C  0.66492892  0.82652142  0.28513391     0.09200
C337        C  0.69201187  0.84344425  0.34809231    -0.54300
C338        C  0.70580380  0.81773975  0.33164026     0.09700
H339        H  0.71519675  0.90371686  0.29617016     0.14300
H340        H  0.70839719  0.79625554  0.28397532     0.00000
H341        H  0.62647707  0.85999726  0.29896539     0.14600
H342        H  0.69307596  0.84429231  0.37532736     0.14400
C343        C  0.85790585  0.69241056  0.31906661     0.86100
C344        C  0.83395894  0.71181937  0.34254070    -0.54100
C345        C  0.81541759  0.73502666  0.32640320     0.09100
C346        C  0.82361842  0.73821363  0.28846797     0.20000
C347        C  0.83510099  0.67962123  0.29059024    -0.54800
C348        C  0.81764457  0.70366560  0.27408960     0.09200
C349        C  0.87922862  0.71989540  0.30272811    -0.54300
C350        C  0.86137720  0.74344869  0.28608575     0.09700
H351        H  0.83132666  0.70827287  0.36949649     0.14300
H352        H  0.80942945  0.75750005  0.27510021     0.00000
H353        H  0.83192086  0.65364495  0.28530877     0.14600
H354        H  0.90613631  0.71990866  0.30284799     0.14400
C355        C  0.66595442  0.69556400  0.13651707     0.86100
C356        C  0.69111258  0.67921572  0.16166157    -0.54100
C357        C  0.70877576  0.70125653  0.18036420     0.09100
C358        C  0.69999351  0.73705892  0.17222706     0.20000
C359        C  0.64458785  0.71858813  0.15845358    -0.54800
C360        C  0.66219056  0.73971742  0.17811194     0.09200
C361        C  0.68892519  0.71808201  0.11545795    -0.54300
C362        C  0.70602697  0.74044190  0.13411202     0.09700
H363        H  0.69608896  0.65307931  0.16367030     0.14300
H364        H  0.71524442  0.75456216  0.18606520     0.00000
H365        H  0.61766729  0.71827779  0.15789023     0.14600
H366        H  0.69357501  0.71477700  0.08877002     0.14400
C367        C  0.85801480  0.86662411  0.13007599     0.86100
C368        C  0.83668264  0.84110180  0.11035660    -0.54100
C369        C  0.82134456  0.81839592  0.13035429     0.09100
C370        C  0.82784760  0.82344632  0.16792973     0.20000
C371        C  0.83182360  0.88167560  0.15424315    -0.54800
C372        C  0.81639493  0.85904827  0.17472216     0.09200
C373        C  0.88124968  0.84567172  0.15279405    -0.54300
C374        C  0.86523533  0.82348062  0.17280237     0.09700
H375        H  0.83032986  0.84281373  0.08382355     0.14300
H376        H  0.81591905  0.80444061  0.18403318     0.00000
H377        H  0.82404020  0.90700998  0.15273505     0.14600
H378        H  0.90783165  0.84969114  0.15450525     0.14400
C379        C  0.67420120  0.69728456  0.82329014     0.86100
C380        C  0.69124349  0.72721347  0.83972530    -0.54100
C381        C  0.71164924  0.74418303  0.81860484     0.09100
C382        C  0.71322249  0.72975839  0.78272573     0.20000
C383        C  0.65649922  0.71170095  0.79147514    -0.54800
C384        C  0.67697812  0.72859699  0.77036460     0.09200
C385        C  0.70225225  0.67615864  0.80773046    -0.54300
C386        C  0.72336660  0.69341975  0.78745233     0.09700
H387        H  0.68724577  0.73440363  0.86576433     0.14300
H388        H  0.72988346  0.74366563  0.76545590     0.00000
H389        H  0.63087381  0.70760506  0.78444281     0.14600
H390        H  0.70543966  0.65007590  0.81277736     0.14400
C391        C  0.85907545  0.67755978  0.64004128     0.86100
C392        C  0.87914425  0.70272881  0.66143329    -0.54100
C393        C  0.86026289  0.72495746  0.67818987     0.09100
C394        C  0.82274077  0.71899784  0.67379343     0.20000
C395        C  0.83703601  0.66107533  0.66734376    -0.54800
C396        C  0.81748400  0.68262645  0.68487087     0.09200
C397        C  0.83564789  0.69862241  0.61802069    -0.54300
C398        C  0.81644828  0.71990673  0.63553055     0.09700
H399        H  0.90588177  0.70242824  0.66455809     0.14300
H400        H  0.80726954  0.73695278  0.68777786     0.00000
H401        H  0.84010526  0.63584085  0.67523121     0.14600
H402        H  0.83485280  0.69718253  0.59065412     0.14400
C403        C  0.68131095  0.86206314  0.62051150     0.86100
C404        C  0.70595925  0.84023917  0.60100300    -0.54100
C405        C  0.72663223  0.82226425  0.62123311     0.09100
C406        C  0.71982924  0.82650250  0.65926276     0.20000
C407        C  0.66276394  0.83614232  0.64247997    -0.54800
C408        C  0.68258629  0.81829952  0.66352528     0.09200
C409        C  0.70216269  0.88199126  0.64599402    -0.54300
C410        C  0.72264084  0.86357356  0.66577722     0.09700
H411        H  0.70523824  0.83677692  0.57396552     0.14300
H412        H  0.73646767  0.81147744  0.67560644     0.00000
H413        H  0.63710730  0.82929163  0.63927564     0.14600
H414        H  0.70140182  0.90865404  0.64747500     0.14400
C415        C  0.86187884  0.87456815  0.81084117     0.86100
C416        C  0.88128092  0.84851119  0.79027551    -0.54100
C417        C  0.86167510  0.82801551  0.77165735     0.09100
C418        C  0.82454584  0.83636143  0.77391528     0.20000
C419        C  0.84145294  0.89291720  0.78296177    -0.54800
C420        C  0.82208239  0.87289108  0.76378633     0.09200
C421        C  0.83508474  0.85554391  0.83091441    -0.54300
C422        C  0.81566238  0.83521656  0.81195708     0.09700
H423        H  0.90813885  0.84659733  0.79043848     0.14300
H424        H  0.80883394  0.82012792  0.75802668     0.00000
H425        H  0.84198698  0.91897454  0.77739976     0.14600
H426        H  0.83099991  0.85968280  0.85753095     0.14400
N427        N  0.04825952  0.07474472  0.04254422    -0.06500
N428        N  0.06998395  0.08225716  0.06633271    -0.58600
N429        N  0.97178401  0.09360385  0.01722491    -0.06100
N430        N  0.95021514  0.11652087  0.02583854    -0.60700
N431        N  0.97249826  0.07005244  0.04022272    -0.05700
N432        N  0.95129933  0.07647838  0.06473578    -0.58600
N433        N  0.04743995  0.09802350  0.01932742    -0.05400
N434        N  0.06861045  0.12168440  0.02682906    -0.61100
C435        C  0.08287364  0.11145801  0.05600323     0.95700
C436        C  0.93740247  0.10539721  0.05532944     0.95500
N437        N  0.97699500  0.07307686  0.91228009    -0.06600
N438        N  0.95623153  0.07971424  0.88734180    -0.59200
N439        N  0.05005481  0.09986292  0.93964426    -0.04800
N440        N  0.07122575  0.12413659  0.93450488    -0.60400
N441        N  0.05274441  0.07772183  0.91570880    -0.06700
N442        N  0.07584667  0.08655800  0.89377955    -0.59400
N443        N  0.97422314  0.09514386  0.93631077    -0.04400
N444        N  0.95140885  0.11715346  0.92812591    -0.60500
Mn445      Mn  0.01065896  0.09731405  0.97806869     1.18400
C446        C  0.94036899  0.10718590  0.89754921     0.97800
C447        C  0.08720412  0.11550741  0.90595290     0.98500
N448        N  0.97735940  0.99189837  0.03751303    -0.06700
N449        N  0.95426336  0.98310276  0.05936106    -0.63000
N450        N  0.05580959  0.97468348  0.01681365    -0.05500
N451        N  0.08001943  0.95380456  0.02378125    -0.63700
N452        N  0.05331429  0.99677181  0.04081742    -0.06200
N453        N  0.07568918  0.99122216  0.06458367    -0.63300
N454        N  0.97992195  0.96970409  0.01364315    -0.05100
N455        N  0.95872231  0.94547846  0.01893200    -0.64000
Mn456      Mn  0.01276317  0.03323124  0.04108036     1.10700
C457        C  0.94251644  0.95414701  0.04737054     0.99000
C458        C  0.09255020  0.96462757  0.05342371     0.99100
N459        N  0.05743493  0.99994473  0.91390639    -0.06200
N460        N  0.07948625  0.99422431  0.89011518    -0.61600
N461        N  0.98269377  0.97137717  0.93355729    -0.05500
N462        N  0.96218601  0.94742749  0.92495849    -0.58300
N463        N  0.98199136  0.99503321  0.91073121    -0.06800
N464        N  0.96102681  0.98760717  0.88629215    -0.61100
N465        N  0.05827365  0.97647571  0.93693344    -0.05800
N466        N  0.08099623  0.95438402  0.92928152    -0.58300
Mn467      Mn  0.01730725  0.03650050  0.91245902     1.20200
Mn468      Mn  0.01922798  0.97226437  0.97533104     1.10100
Cl469      Cl  0.01485685  0.03483059  0.97674016    -0.86300
C470        C  0.09410655  0.96590326  0.90013606     0.96000
C471        C  0.94845108  0.95803458  0.89555747     0.95800
C472        C  0.67134895  0.20723635  0.33405787     0.86100
C473        C  0.69702725  0.22642026  0.35601845    -0.54100
C474        C  0.72033923  0.24321383  0.33791603     0.09100
C475        C  0.71582801  0.23938201  0.29931074     0.20000
C476        C  0.65686189  0.23373422  0.31034310    -0.54800
C477        C  0.67992490  0.25012105  0.29173118     0.09200
C478        C  0.69366634  0.18520350  0.31175494    -0.54300
C479        C  0.71638293  0.20199158  0.29268704     0.09700
H480        H  0.69797755  0.22678531  0.38328916     0.14300
H481        H  0.73399464  0.25297889  0.28404784     0.00000
H482        H  0.63045179  0.23848143  0.30784695     0.14600
H483        H  0.69205750  0.15859043  0.31208008     0.14400
C484        C  0.85137856  0.18207195  0.14553365     0.86100
C485        C  0.86729303  0.21220895  0.16438273    -0.54100
C486        C  0.84504676  0.23091446  0.18224196     0.09100
C487        C  0.80947696  0.21700268  0.17985617     0.20000
C488        C  0.83375881  0.16295212  0.17454016    -0.54800
C489        C  0.81154002  0.18144312  0.19210856     0.09200
C490        C  0.82395181  0.19825137  0.12403369    -0.54300
C491        C  0.80193072  0.21618635  0.14200142     0.09700
H492        H  0.89312477  0.21860213  0.16344206     0.14300
H493        H  0.79064685  0.23057884  0.19444505     0.00000
H494        H  0.83915180  0.13759330  0.18119872     0.14600
H495        H  0.82299629  0.19679983  0.09666896     0.14400
C496        C  0.68214598  0.37202808  0.12925864     0.86100
C497        C  0.70455931  0.34679357  0.11154628    -0.54100
C498        C  0.72455302  0.32951444  0.13293939     0.09100
C499        C  0.72001745  0.33874172  0.17011816     0.20000
C500        C  0.66289708  0.35240778  0.15653577    -0.54800
C501        C  0.68281674  0.33431577  0.17733092     0.09200
C502        C  0.70599674  0.39352107  0.15098647    -0.54300
C503        C  0.72609421  0.37585337  0.17199984     0.09700
H504        H  0.70285096  0.34142656  0.08477170     0.14300
H505        H  0.73589033  0.32412290  0.18724576     0.00000
H506        H  0.63638917  0.35406042  0.16040338     0.14600
H507        H  0.70594054  0.42022002  0.15122808     0.14400
C508        C  0.85584356  0.38006795  0.32128946     0.86100
C509        C  0.86489291  0.35318745  0.29495805    -0.54100
C510        C  0.83827259  0.33565514  0.28194480     0.09100
C511        C  0.80519479  0.34870082  0.29682656     0.20000
C512        C  0.83143842  0.40174998  0.30047218    -0.54800
C513        C  0.80486477  0.38538324  0.28787670     0.09200
C514        C  0.83465909  0.36209579  0.34799468    -0.54300
C515        C  0.80844543  0.34546922  0.33510247     0.09700
H516        H  0.88979110  0.35056031  0.28543924     0.14300
H517        H  0.78166216  0.33792680  0.29001661     0.00000
H518        H  0.83766838  0.42605597  0.29088496     0.14600
H519        H  0.84134338  0.36068019  0.37454017     0.14400
N520        N  0.05693620  0.60158199  0.43463266    -0.06500
N521        N  0.07680153  0.62685433  0.42893711    -0.58600
N522        N  0.98422934  0.57265333  0.40842691    -0.06100
N523        N  0.96211201  0.57844607  0.38445976    -0.60700
N524        N  0.98135110  0.59434465  0.43277184    -0.05700
N525        N  0.95709069  0.61517514  0.42590711    -0.58600
N526        N  0.05995970  0.57953043  0.41064030    -0.05400
N527        N  0.08212560  0.58938242  0.38817251    -0.61100
C528        C  0.09247484  0.61885018  0.40002260     0.95700
C529        C  0.94497711  0.60469906  0.39596272     0.95500
N530        N  0.99266100  0.47115366  0.42960562    -0.06600
N531        N  0.97189256  0.44713600  0.42188684    -0.59200
N532        N  0.06646489  0.50131526  0.40896376    -0.04800
N533        N  0.08880357  0.49603985  0.38529620    -0.60400
N534        N  0.06797805  0.47806879  0.43221562    -0.06700
N535        N  0.09145222  0.45672928  0.42494144    -0.59400
N536        N  0.99107723  0.49480225  0.40678277    -0.04400
N537        N  0.96908306  0.48739682  0.38326493    -0.60500
Mn538      Mn  0.02552877  0.53709751  0.40788007     1.18400
C539        C  0.95708984  0.45774485  0.39309772     0.97800
C540        C  0.10459225  0.46851017  0.39598145     0.98500
N541        N  0.98019166  0.59167647  0.51278427    -0.06700
N542        N  0.95685258  0.61306241  0.52044836    -0.63000
N543        N  0.05768989  0.57500869  0.53729308    -0.05500
N544        N  0.07960981  0.58273674  0.56075217    -0.63700
N545        N  0.05597570  0.59853504  0.51436949    -0.06200
N546        N  0.07673250  0.62262189  0.52184334    -0.63300
N547        N  0.98185252  0.56836871  0.53594279    -0.05100
N548        N  0.95964026  0.57353384  0.55981959    -0.64000
Mn549      Mn  0.01847458  0.59723376  0.47370102     1.10700
C550        C  0.94405423  0.60133919  0.54963899     0.99000
C551        C  0.09167654  0.61235101  0.55066557     0.99100
N552        N  0.06643653  0.47489351  0.51229484    -0.06200
N553        N  0.08871080  0.45239449  0.52044292    -0.61600
N554        N  0.98848251  0.49060161  0.53409834    -0.05500
N555        N  0.96643887  0.48096237  0.55675592    -0.58300
N556        N  0.99099847  0.46864177  0.50993991    -0.06800
N557        N  0.97087649  0.44360335  0.51571876    -0.61100
N558        N  0.06410135  0.49685749  0.53643094    -0.05800
N559        N  0.08473314  0.48956209  0.56138478    -0.58300
Mn560      Mn  0.02959688  0.47255010  0.47094709     1.20200
Mn561      Mn  0.02303542  0.53277462  0.53671985     1.10100
Cl562      Cl  0.02416789  0.53489889  0.47230237    -0.86300
C563        C  0.10035843  0.46195682  0.55097359     0.96000
C564        C  0.95563908  0.45171999  0.54483971     0.95800
C565        C  0.93688736  0.40486234  0.36955554    -0.06100
C566        C  0.93175711  0.43864050  0.37419443    -0.00200
C567        C  0.90206239  0.45301766  0.36239088    -0.08800
C568        C  0.87894147  0.43312136  0.34547822    -0.06100
C569        C  0.88449138  0.39939596  0.33838932    -0.00200
C570        C  0.91372288  0.38461317  0.35259797    -0.08700
C571        C  0.92214987  0.34811831  0.35012422     0.61700
H572        H  0.95973427  0.39435256  0.37919566     0.12400
H573        H  0.85554186  0.44420532  0.33890756     0.12400
C574        C  0.89405264  0.48905853  0.36872175     0.61900
F575        F  0.94434542  0.33876213  0.37513333    -0.23200
F576        F  0.93685271  0.34190123  0.31934613    -0.20600
F577        F  0.89450873  0.32843672  0.35404338    -0.20200
F578        F  0.91499539  0.50882504  0.34984394    -0.20300
F579        F  0.89794478  0.49613827  0.40262314    -0.20600
F580        F  0.86177309  0.49687744  0.35979980    -0.23300
C581        C  0.73452185  0.40293983  0.22755474    -0.06100
C582        C  0.74851573  0.39037486  0.19786927    -0.00200
C583        C  0.78332196  0.38649807  0.19603663    -0.08800
C584        C  0.80226358  0.38948195  0.22570505    -0.06100
C585        C  0.78724948  0.39645826  0.25674408    -0.00200
C586        C  0.75362117  0.40614984  0.25726030    -0.08700
C587        C  0.73827600  0.41911731  0.28930760     0.61700
H588        H  0.70810423  0.40770397  0.22807082     0.12400
H589        H  0.82830821  0.38293310  0.22546102     0.12400
C590        C  0.80002493  0.37622423  0.16370152     0.61900
F591        F  0.70538673  0.42784546  0.28471356    -0.23200
F592        F  0.75564049  0.44661319  0.29973360    -0.20600
F593        F  0.73986284  0.39543898  0.31427611    -0.20200
F594        F  0.78737653  0.39411851  0.13678484    -0.20300
F595        F  0.79450923  0.34316719  0.15861611    -0.20600
F596        F  0.83392223  0.38154939  0.16498067    -0.23300
C597        C  0.78922235  0.26581498  0.10751195    -0.06100
C598        C  0.77748516  0.23913309  0.12687199    -0.00200
C599        C  0.74515933  0.24046606  0.13993198    -0.08800
C600        C  0.72891592  0.27050278  0.14044876    -0.06100
C601        C  0.74140579  0.29834897  0.12405999    -0.00200
C602        C  0.77106579  0.29545494  0.10489993    -0.08700
C603        C  0.78574320  0.32251943  0.08304439     0.61700
H604        H  0.81383084  0.26450379  0.09661076     0.12400
H605        H  0.70697066  0.27240480  0.15564205     0.12400
C606        C  0.72776959  0.21156307  0.15587312     0.61900
F607        F  0.81714388  0.33037360  0.09460027    -0.23200
F608        F  0.76691946  0.35082862  0.08251793    -0.20600
F609        F  0.78835613  0.31123956  0.05028021    -0.20200
F610        F  0.74347054  0.18230284  0.14848259    -0.20300
F611        F  0.69563893  0.20960248  0.14368886    -0.20600
F612        F  0.72663619  0.21626722  0.19030286    -0.23300
C613        C  0.87295286  0.29457462  0.24855719    -0.06100
C614        C  0.84177123  0.30988901  0.25399421    -0.00200
C615        C  0.81565036  0.30061707  0.23151286    -0.08800
C616        C  0.82369602  0.28386034  0.20197479    -0.06100
C617        C  0.85105460  0.26280772  0.20107130    -0.00200
C618        C  0.87769551  0.26985772  0.22361638    -0.08700
C619        C  0.91110198  0.25285901  0.22117477     0.61700
H620        H  0.89318209  0.30025901  0.26541694     0.12400
H621        H  0.80481998  0.28156284  0.18264827     0.12400
C622        C  0.77955881  0.29827309  0.24178230     0.61900
F623        F  0.93290326  0.26343028  0.24588656    -0.23200
F624        F  0.92522122  0.25992248  0.19018749    -0.20600
F625        F  0.90760255  0.21927121  0.22490866    -0.20200
F626        F  0.76414644  0.32834444  0.23895174    -0.20300
F627        F  0.77819865  0.28605665  0.27429939    -0.20600
F628        F  0.76167979  0.27652510  0.22201935    -0.23300
C629        C  0.68215327  0.32734383  0.23869747    -0.06100
C630        C  0.67146428  0.31565452  0.20746159    -0.00200
C631        C  0.65538770  0.28463926  0.20592341    -0.08800
C632        C  0.65733529  0.26366750  0.23451021    -0.06100
C633        C  0.67128721  0.27459800  0.26499443    -0.00200
C634        C  0.67976372  0.30813153  0.26793151    -0.08700
C635        C  0.68556795  0.32487043  0.30114697     0.61700
H636        H  0.69223298  0.35192155  0.24038892     0.12400
H637        H  0.64798111  0.23875745  0.23330653     0.12400
C638        C  0.63432073  0.27476901  0.17581742     0.61900
F639        F  0.67407225  0.30614644  0.32784384    -0.23200
F640        F  0.71901025  0.33095807  0.30466921    -0.20600
F641        F  0.66863726  0.35448581  0.30173967    -0.20200
F642        F  0.65159354  0.27733530  0.14596020    -0.20300
F643        F  0.60705996  0.29529825  0.17402558    -0.20600
F644        F  0.62307139  0.24269389  0.17883147    -0.23300
C645        C  0.73576880  0.29623090  0.36622333    -0.06100
C646        C  0.74568999  0.26556496  0.35361021    -0.00200
C647        C  0.78011363  0.25954039  0.35165185    -0.08800
C648        C  0.80177087  0.28661592  0.34921741    -0.06100
C649        C  0.79009802  0.31885729  0.35316440    -0.00200
C650        C  0.75787922  0.32321417  0.36658936    -0.08700
C651        C  0.74626121  0.35507048  0.38218441     0.61700
H652        H  0.71037396  0.29967734  0.37414967     0.12400
H653        H  0.82769396  0.28263548  0.34328534     0.12400
C654        C  0.79481163  0.22642849  0.36051273     0.61900
F655        F  0.71670456  0.36495610  0.36760643    -0.23200
F656        F  0.76923747  0.38013104  0.37875237    -0.20600
F657        F  0.74093603  0.34980286  0.41627129    -0.20200
F658        F  0.82119968  0.21959078  0.33958235    -0.20300
F659        F  0.77172220  0.20130848  0.35858562    -0.20600
F660        F  0.80661145  0.22759279  0.39328452    -0.23300
C661        C  0.76032436  0.15899359  0.21843077    -0.06100
C662        C  0.79255377  0.17128012  0.22281414    -0.00200
C663        C  0.80050728  0.18589936  0.25394090    -0.08800
C664        C  0.77490357  0.19470969  0.27594231    -0.06100
C665        C  0.74177881  0.18639267  0.27000287    -0.00200
C666        C  0.73441297  0.16659189  0.24134825    -0.08700
C667        C  0.69921841  0.15668398  0.23261152     0.61700
H668        H  0.75494750  0.14608075  0.19529597     0.12400
H669        H  0.78075126  0.20954401  0.29742595     0.12400
C670        C  0.83572042  0.19288000  0.26471591     0.61900
F671        F  0.69730788  0.14119216  0.20163599    -0.23200
F672        F  0.67937506  0.18430934  0.23103993    -0.20600
F673        F  0.68723775  0.13513531  0.25669580    -0.20200
F674        F  0.83989782  0.22632616  0.26896852    -0.20300
F675        F  0.85857329  0.18148048  0.24171401    -0.20600
F676        F  0.84189692  0.17700606  0.29503560    -0.23300
C677        C  0.90507164  0.17289780  0.11272348    -0.06100
C678        C  0.87370876  0.16060238  0.12268454    -0.00200
C679        C  0.86301102  0.13003648  0.10794242    -0.08800
C680        C  0.88528541  0.11244295  0.08734810    -0.06100
C681        C  0.91604294  0.12520719  0.07784032    -0.00200
C682        C  0.92630821  0.15586834  0.09074659    -0.08700
C683        C  0.95994277  0.17045166  0.08178537     0.61700
H684        H  0.91289061  0.19687966  0.12061406     0.12400
H685        H  0.87821115  0.08858307  0.07755126     0.12400
C686        C  0.82924130  0.11367053  0.11319267     0.61900
F687        F  0.96687479  0.19847556  0.10020671    -0.23200
F688        F  0.96055001  0.17889862  0.04793454    -0.20600
F689        F  0.98470615  0.14774961  0.08844305    -0.20200
F690        F  0.81950467  0.09759776  0.08405901    -0.20300
F691        F  0.80410191  0.13536045  0.12058588    -0.20600
F692        F  0.83173423  0.09061060  0.13887487    -0.23300
C693        C  0.88075375  0.93053554  0.83385810    -0.06100
C694        C  0.88403639  0.89580508  0.83443258    -0.00200
C695        C  0.90736939  0.88223060  0.85820861    -0.08800
C696        C  0.92785571  0.90363737  0.87681829    -0.06100
C697        C  0.92546453  0.93792285  0.87446392    -0.00200
C698        C  0.90100606  0.95173672  0.85299617    -0.08700
C699        C  0.89550252  0.98874564  0.85069201     0.61700
H700        H  0.86157766  0.94183889  0.81907731     0.12400
H701        H  0.94621353  0.89314917  0.89380906     0.12400
C702        C  0.91282636  0.84592317  0.86631337     0.61900
F703        F  0.86734687  0.99670045  0.83232321    -0.23200
F704        F  0.92224528  0.00350465  0.83486996    -0.20600
F705        F  0.89176413  0.00163291  0.88270673    -0.20200
F706        F  0.94433330  0.83699242  0.85611340    -0.20300
F707        F  0.89058814  0.82490094  0.85164926    -0.20600
F708        F  0.91042994  0.84112127  0.90085716    -0.23300
C709        C  0.78057873  0.87960911  0.67924310    -0.06100
C710        C  0.74747176  0.87763958  0.68957829    -0.00200
C711        C  0.73949110  0.88716479  0.72284653    -0.08800
C712        C  0.76538409  0.89016840  0.74663974    -0.06100
C713        C  0.79849178  0.88488945  0.73737475    -0.00200
C714        C  0.80631602  0.88495749  0.70262326    -0.08700
C715        C  0.84019286  0.89399690  0.68914086     0.61700
H716        H  0.78615947  0.87730170  0.65274957     0.12400
H717        H  0.75980598  0.89445207  0.77298310     0.12400
C718        C  0.70402269  0.89339610  0.73304326     0.61900
F719        F  0.85159669  0.86970312  0.66818484    -0.23200
F720        F  0.86325618  0.89904760  0.71440483    -0.20600
F721        F  0.83750567  0.92277562  0.67050046    -0.20200
F722        F  0.68612545  0.86480024  0.72986687    -0.20300
F723        F  0.69032573  0.91730888  0.71234961    -0.20600
F724        F  0.70169118  0.90408876  0.76605384    -0.23300
C725        C  0.80570461  0.77564624  0.61201519    -0.06100
C726        C  0.79368863  0.74409946  0.61928882    -0.00200
C727        C  0.75980021  0.73734448  0.61326180    -0.08800
C728        C  0.73789649  0.76397580  0.60857396    -0.06100
C729        C  0.74951727  0.79643335  0.60877193    -0.00200
C730        C  0.78394581  0.80192450  0.60533450    -0.08700
C731        C  0.79837929  0.83392939  0.59239954     0.61700
H732        H  0.83213783  0.77964295  0.61160016     0.12400
H733        H  0.71139192  0.75982065  0.60717431     0.12400
C734        C  0.74712216  0.70244457  0.61185668     0.61900
F735        F  0.81546789  0.82796295  0.56281958    -0.23200
F736        F  0.82023916  0.84658345  0.61559853    -0.20600
F737        F  0.77436738  0.85721416  0.58560463    -0.20200
F738        F  0.71360131  0.70120807  0.60431819    -0.20300
F739        F  0.75222089  0.68724881  0.64250634    -0.20600
F740        F  0.76404115  0.68546022  0.58716390    -0.23300
C741        C  0.87837234  0.74347239  0.73530784    -0.06100
C742        C  0.87422637  0.75072258  0.70092149    -0.00200
C743        C  0.87957632  0.78351674  0.69018861    -0.08800
C744        C  0.87757694  0.80878268  0.71430653    -0.06100
C745        C  0.87415736  0.80166157  0.74873652    -0.00200
C746        C  0.87907502  0.76876842  0.75954927    -0.08700
C747        C  0.88531998  0.76073768  0.79619015     0.61700
H748        H  0.87938372  0.71792876  0.74316603     0.12400
H749        H  0.87909584  0.83416463  0.70643753     0.12400
C750        C  0.89073198  0.79250473  0.65489453     0.61900
F751        F  0.89208853  0.72767513  0.80119949    -0.23200
F752        F  0.85778226  0.76886390  0.81474929    -0.20600
F753        F  0.91233929  0.77855645  0.80745336    -0.20200
F754        F  0.89287815  0.76567519  0.63379430    -0.20300
F755        F  0.92181168  0.80681396  0.65673404    -0.20600
F756        F  0.86923226  0.81494853  0.64088224    -0.23300
C757        C  0.91081207  0.66862201  0.60570160    -0.06100
C758        C  0.88054787  0.65519665  0.61748535    -0.00200
C759        C  0.86959519  0.62496179  0.60255152    -0.08800
C760        C  0.89166281  0.60764671  0.58142970    -0.06100
C761        C  0.92231189  0.62074789  0.57182127    -0.00200
C762        C  0.93199897  0.65193748  0.58371567    -0.08700
C763        C  0.96466320  0.66783165  0.57331762     0.61700
H764        H  0.91749676  0.69345112  0.61224645     0.12400
H765        H  0.88473722  0.58384108  0.57145002     0.12400
C766        C  0.83493286  0.61059932  0.60690669     0.61900
F767        F  0.97113667  0.69623470  0.59130472    -0.23200
F768        F  0.96355398  0.67615432  0.53944101    -0.20600
F769        F  0.99064291  0.64627331  0.57907067    -0.20200
F770        F  0.81106152  0.63489421  0.60587409    -0.20300
F771        F  0.83294803  0.59340529  0.63698767    -0.20600
F772        F  0.82737341  0.58885844  0.58120919    -0.23300
C773        C  0.64422787  0.77046495  0.73721511    -0.06100
C774        C  0.66630086  0.74373449  0.73774718    -0.00200
C775        C  0.68372413  0.73659803  0.70815122    -0.08800
C776        C  0.68804832  0.76135581  0.68412765    -0.06100
C777        C  0.67054471  0.79094758  0.68576113    -0.00200
C778        C  0.64491718  0.79383514  0.71043652    -0.08700
C779        C  0.61813392  0.82011592  0.70863886     0.61700
H780        H  0.62790420  0.77384833  0.75855789     0.12400
H781        H  0.70547416  0.75734109  0.66414981     0.12400
C782        C  0.69785561  0.70325126  0.70097085     0.61900
F783        F  0.59912581  0.82055180  0.73770120    -0.23200
F784        F  0.59725419  0.81341054  0.68183994    -0.20600
F785        F  0.63141531  0.85111331  0.70429391    -0.20200
F786        F  0.68717506  0.67988103  0.72400110    -0.20300
F787        F  0.73191713  0.70559693  0.70145253    -0.20600
F788        F  0.68749750  0.69315568  0.66939581    -0.23300
C789        C  0.75012391  0.65372627  0.74693496    -0.06100
C790        C  0.75319857  0.67939262  0.77044200    -0.00200
C791        C  0.78328856  0.69671778  0.77147120    -0.08800
C792        C  0.80399880  0.69589612  0.74354203    -0.06100
C793        C  0.79862650  0.67460650  0.71656447    -0.00200
C794        C  0.77343436  0.65012219  0.72025120    -0.08700
C795        C  0.77078058  0.62081331  0.69691877     0.61700
H796        H  0.72833988  0.63818313  0.74813297     0.12400
H797        H  0.82425543  0.71299747  0.74270033     0.12400
C798        C  0.79450962  0.71633604  0.80142474     0.61900
F799        F  0.74301948  0.60191958  0.70397294    -0.23200
F800        F  0.79834359  0.60104601  0.70121191    -0.20600
F801        F  0.76883404  0.63077752  0.66366287    -0.20200
F802        F  0.77519835  0.70997462  0.82944148    -0.20300
F803        F  0.79365528  0.74939640  0.79322435    -0.20600
F804        F  0.82667215  0.70759552  0.80959556    -0.23300
C805        C  0.75573330  0.77289196  0.85272543    -0.06100
C806        C  0.73058180  0.77426464  0.82815156    -0.00200
C807        C  0.72883106  0.80223379  0.80747021    -0.08800
C808        C  0.75683947  0.82189250  0.80379506    -0.06100
C809        C  0.78492733  0.81787043  0.82414070    -0.00200
C810        C  0.78262484  0.79555169  0.85209938    -0.08700
C811        C  0.80713112  0.79549034  0.88117640     0.61700
H812        H  0.75519242  0.75298335  0.87098386     0.12400
H813        H  0.75666929  0.84017394  0.78428407     0.12400
C814        C  0.69799180  0.81204520  0.78873916     0.61900
F815        F  0.80071121  0.77031850  0.90396487    -0.23200
F816        F  0.80477973  0.82487750  0.89833602    -0.20600
F817        F  0.83902854  0.79153461  0.86978587    -0.20200
F818        F  0.67067372  0.79440611  0.79953633    -0.20300
F819        F  0.70318013  0.80741791  0.75468463    -0.20600
F820        F  0.69143452  0.84482821  0.79475537    -0.23300
C821        C  0.88363554  0.88459399  0.07400807    -0.06100
C822        C  0.87803991  0.89168420  0.10850758    -0.00200
C823        C  0.89485952  0.91973084  0.12227028    -0.08800
C824        C  0.91396192  0.93975726  0.10060007    -0.06100
C825        C  0.91907861  0.93248786  0.06647380    -0.00200
C826        C  0.90325517  0.90445244  0.05269046    -0.08700
C827        C  0.90706295  0.89474879  0.01581374     0.61700
H828        H  0.87441599  0.86205073  0.06355648     0.12400
H829        H  0.92580525  0.96148034  0.11068472     0.12400
C830        C  0.89324265  0.93029429  0.15918567     0.61900
F831        F  0.88579678  0.86944820  0.00692576    -0.23200
F832        F  0.93911071  0.88410913  0.01000409    -0.20600
F833        F  0.89989421  0.92131654  0.99504380    -0.20200
F834        F  0.91906201  0.95131812  0.16737012    -0.20300
F835        F  0.89572852  0.90393399  0.18103994    -0.20600
F836        F  0.86406030  0.94703251  0.16490007    -0.23300
C837        C  0.76590938  0.74414287  0.12336651    -0.06100
C838        C  0.73483549  0.75942402  0.12101857    -0.00200
C839        C  0.73333155  0.79341562  0.11290605    -0.08800
C840        C  0.76303737  0.81165131  0.11188793    -0.06100
C841        C  0.79373895  0.79690607  0.11893152    -0.00200
C842        C  0.79550689  0.76235232  0.12207356    -0.08700
C843        C  0.82795942  0.74491418  0.12840096     0.61700
H844        H  0.76690812  0.71802626  0.12858416     0.12400
H845        H  0.76189486  0.83814328  0.10860857     0.12400
C846        C  0.70143281  0.81196786  0.10634257     0.61900
F847        F  0.83395473  0.74432549  0.16270275    -0.23200
F848        F  0.85374381  0.76078446  0.11201121    -0.20600
F849        F  0.82672683  0.71293768  0.11664487    -0.20200
F850        F  0.67373538  0.79197397  0.10710210    -0.20300
F851        F  0.70301538  0.82664246  0.07478351    -0.20600
F852        F  0.69790935  0.83628670  0.13028918    -0.23300
C853        C  0.75839425  0.70536125  0.26014471    -0.06100
C854        C  0.79027974  0.69718076  0.24961278    -0.00200
C855        C  0.79463763  0.68455055  0.21656372    -0.08800
C856        C  0.76693238  0.68384863  0.19441683    -0.06100
C857        C  0.73507292  0.69272696  0.20550581    -0.00200
C858        C  0.73068593  0.69997447  0.23994133    -0.08700
C859        C  0.69752942  0.69995710  0.25719847     0.61700
H860        H  0.75465219  0.71535144  0.28488039     0.12400
H861        H  0.76999983  0.67672247  0.16836087     0.12400
C862        C  0.82817918  0.67281732  0.20454420     0.61900
F863        F  0.69853605  0.67877009  0.28467123    -0.23200
F864        F  0.67283349  0.68903791  0.23599560    -0.20600
F865        F  0.69051664  0.73118888  0.26857087    -0.20200
F866        F  0.83735501  0.64507476  0.22258299    -0.20300
F867        F  0.85160960  0.69709921  0.20929537    -0.20600
F868        F  0.82771756  0.66483067  0.17063327    -0.23300
C869        C  0.89183932  0.75623581  0.23283671    -0.06100
C870        C  0.87617322  0.76788064  0.26210195    -0.00200
C871        C  0.86848268  0.80169918  0.26391516    -0.08800
C872        C  0.86879022  0.82061525  0.23425271    -0.06100
C873        C  0.87928911  0.80747606  0.20344539    -0.00200
C874        C  0.89418869  0.77588561  0.20339625    -0.08700
C875        C  0.91260948  0.76189101  0.17344914     0.61700
H876        H  0.90029761  0.73095424  0.23216191     0.12400
H877        H  0.85900495  0.84542924  0.23484304     0.12400
C878        C  0.86000187  0.81867797  0.29646416     0.61900
F879        F  0.94528229  0.75657634  0.18264638    -0.23200
F880        F  0.91236902  0.78270427  0.14576024    -0.20600
F881        F  0.89882677  0.73213203  0.16420031    -0.20200
F882        F  0.86781990  0.79926117  0.32412178    -0.20300
F883        F  0.82663976  0.82648288  0.29660040    -0.20600
F884        F  0.87823054  0.84742607  0.29903489    -0.23300
C885        C  0.92831301  0.63089146  0.34205861    -0.06100
C886        C  0.92036278  0.62320774  0.37556304    -0.00200
C887        C  0.88938728  0.63303517  0.38851956    -0.08800
C888        C  0.86867924  0.65286584  0.36826970    -0.06100
C889        C  0.87838509  0.66464860  0.33605326    -0.00200
C890        C  0.90750908  0.65036051  0.32146823    -0.08700
C891        C  0.91879103  0.65400245  0.28493429     0.61700
H892        H  0.95146768  0.62177187  0.33181472     0.12400
H893        H  0.84456507  0.65894949  0.37797321     0.12400
C894        C  0.87803386  0.62230808  0.42346211     0.61900
F895        F  0.94752170  0.67260478  0.28389193    -0.23200
F896        F  0.89568214  0.66816681  0.26377739    -0.20600
F897        F  0.92565623  0.62316754  0.27205306    -0.20200
F898        F  0.89726475  0.63744796  0.44776003    -0.20300
F899        F  0.88098694  0.58852637  0.42678837    -0.20600
F900        F  0.84524243  0.63054273  0.42936858    -0.23300
C901        C  0.63546906  0.77835075  0.26087709    -0.06100
C902        C  0.64868160  0.80980369  0.25586154    -0.00200
C903        C  0.65343031  0.82079248  0.22215115    -0.08800
C904        C  0.65481915  0.79720460  0.19629291    -0.06100
C905        C  0.64752344  0.76399882  0.20239857    -0.00200
C906        C  0.63245908  0.75577507  0.23404812    -0.08700
C907        C  0.61183251  0.72527169  0.24134276     0.61700
H908        H  0.62867886  0.77086504  0.28626067     0.12400
H909        H  0.66305381  0.80433396  0.17138807     0.12400
C910        C  0.65534068  0.85699460  0.21316701     0.61900
F911        F  0.62271057  0.71007361  0.27069590    -0.23200
F912        F  0.61224300  0.70253634  0.21577578    -0.20600
F913        F  0.57929409  0.73486270  0.24618362    -0.20200
F914        F  0.68402230  0.87083617  0.22539155    -0.20300
F915        F  0.62824454  0.87291056  0.22674101    -0.20600
F916        F  0.65459391  0.86205619  0.17858750    -0.23300
C917        C  0.76556862  0.88344800  0.25266984    -0.06100
C918        C  0.74621038  0.85449809  0.25585163    -0.00200
C919        C  0.75042464  0.83036200  0.23035097    -0.08800
C920        C  0.76496914  0.83967170  0.19998719    -0.06100
C921        C  0.78837713  0.86489035  0.19892175    -0.00200
C922        C  0.78834504  0.88804575  0.22569873    -0.08700
C923        C  0.81140172  0.91744537  0.22597362     0.61700
H924        H  0.76423308  0.90176411  0.27221962     0.12400
H925        H  0.76332910  0.82281540  0.17908036     0.12400
C926        C  0.74849709  0.79369464  0.23657684     0.61900
F927        F  0.80868690  0.93527529  0.25550016    -0.23200
F928        F  0.80355847  0.93819884  0.19938239    -0.20600
F929        F  0.84388322  0.90714559  0.22326352    -0.20200
F930        F  0.76800050  0.77604715  0.21430383    -0.20300
F931        F  0.71638205  0.78336696  0.23248662    -0.20600
F932        F  0.76016666  0.78640936  0.26853279    -0.23300
C933        C  0.72809531  0.76173297  0.34469290    -0.06100
C934        C  0.73254852  0.79606965  0.34591530    -0.00200
C935        C  0.76492393  0.80833258  0.35292983    -0.08800
C936        C  0.79207252  0.78681373  0.34964025    -0.06100
C937        C  0.78768381  0.75350357  0.34266359    -0.00200
C938        C  0.75551378  0.74005798  0.34622834    -0.08700
C939        C  0.75056956  0.70398726  0.35524581     0.61700
H940        H  0.70317203  0.75207765  0.34220827     0.12400
H941        H  0.81697037  0.79597658  0.35202670     0.12400
C942        C  0.77131393  0.84356134  0.36375718     0.61900
F943        F  0.71725663  0.69580834  0.35638263    -0.23200
F944        F  0.76402778  0.69829880  0.38688535    -0.20600
F945        F  0.76602838  0.68336152  0.33264416    -0.20200
F946        F  0.75233721  0.85063540  0.39179917    -0.20300
F947        F  0.76374829  0.86529306  0.33811668    -0.20600
F948        F  0.80421970  0.84854465  0.37243229    -0.23300
C949        C  0.12967340  0.91607162  0.82841198    -0.06100
C950        C  0.15939916  0.90397758  0.84273794    -0.00200
C951        C  0.16974928  0.91747449  0.87443507    -0.08800
C952        C  0.14702457  0.93667775  0.89271949    -0.06100
C953        C  0.11668247  0.94650793  0.87892955    -0.00200
C954        C  0.10805826  0.93687167  0.84587441    -0.08700
C955        C  0.07590222  0.94788867  0.82913620     0.61700
H956        H  0.12361091  0.90993521  0.80265462     0.12400
H957        H  0.15332121  0.94507241  0.91786023     0.12400
C958        C  0.20442815  0.91402619  0.88939962     0.61900
F959        F  0.07090992  0.93282215  0.79828000    -0.23200
F960        F  0.07672684  0.98149380  0.82357171    -0.20600
F961        F  0.04922673  0.94009103  0.84960812    -0.20200
F962        F  0.22846146  0.91400755  0.86459774    -0.20300
F963        F  0.20643662  0.88563314  0.90861710    -0.20600
F964        F  0.21168211  0.94020086  0.91040260    -0.23300
C965        C  0.15394933  0.75811269  0.73760634    -0.06100
C966        C  0.16552348  0.76202307  0.70437864    -0.00200
C967        C  0.17341050  0.79427881  0.69291714    -0.08800
C968        C  0.17590560  0.81976917  0.71653755    -0.06100
C969        C  0.16735969  0.81538206  0.75044459    -0.00200
C970        C  0.15308896  0.78480839  0.76053312    -0.08700
C971        C  0.13725744  0.78010550  0.79503508     0.61700
H972        H  0.14670054  0.73368472  0.74581433     0.12400
H973        H  0.18569554  0.84325641  0.70840719     0.12400
C974        C  0.18000624  0.80354727  0.65648449     0.61900
F975        F  0.12672867  0.74799831  0.79998015    -0.23200
F976        F  0.10985120  0.80033182  0.79745380    -0.20600
F977        F  0.15916843  0.78773192  0.82065366    -0.20200
F978        F  0.17351589  0.77828250  0.63442142    -0.20300
F979        F  0.21261984  0.81336980  0.65302135    -0.20600
F980        F  0.15975205  0.82965495  0.64750056    -0.23300
C981        C  0.11093812  0.62918332  0.60700455    -0.06100
C982        C  0.11377291  0.63304785  0.57205189    -0.00200
C983        C  0.13660420  0.65643451  0.55916732    -0.08800
C984        C  0.15571542  0.67509291  0.58206746    -0.06100
C985        C  0.15327707  0.67118687  0.61750545    -0.00200
C986        C  0.12904162  0.64821513  0.63009850    -0.08700
C987        C  0.12038833  0.64105567  0.66704090     0.61700
H988        H  0.09324985  0.61137116  0.61671549     0.12400
H989        H  0.17203683  0.69344268  0.57172524     0.12400
C990        C  0.14155335  0.66128843  0.52142927     0.61900
F991        F  0.08630873  0.64262502  0.67099898    -0.23200
F992        F  0.13381022  0.66219100  0.69032651    -0.20600
F993        F  0.13069247  0.60950506  0.67510334    -0.20200
F994        F  0.11376773  0.67597506  0.50748105    -0.20300
F995        F  0.14695230  0.63122955  0.50618926    -0.20600
F996        F  0.16859512  0.68119583  0.51439215    -0.23300
C997        C  0.28336108  0.79896481  0.62012724    -0.06100
C998        C  0.29452152  0.80850319  0.65258643    -0.00200
C999        C  0.28414664  0.78848440  0.68008745    -0.08800
C1000       C  0.27343594  0.75685742  0.67321319    -0.06100
C1001       C  0.25442686  0.75101632  0.64419405    -0.00200
C1002       C  0.26131376  0.77176019  0.61566929    -0.08700
C1003       C  0.24764444  0.76500695  0.58072415     0.61700
H1004       H  0.29062621  0.81346898  0.59848922     0.12400
H1005       H  0.27379519  0.73959002  0.69399946     0.12400
C1006       C  0.27238984  0.80160760  0.71383388     0.61900
F1007       F  0.25914554  0.78748461  0.55708014    -0.23200
F1008       F  0.21345584  0.76701636  0.58080247    -0.20600
F1009       F  0.25764917  0.73410066  0.57048165    -0.20200
F1010       F  0.26819498  0.83528799  0.71241622    -0.20300
F1011       F  0.29408157  0.79275284  0.73942247    -0.20600
F1012       F  0.24184645  0.78837235  0.72194077    -0.23300
C1013       C  0.27968946  0.90909233  0.70555522    -0.06100
C1014       C  0.30949128  0.89619925  0.71871272    -0.00200
C1015       C  0.31176366  0.88956310  0.75360785    -0.08800
C1016       C  0.28269517  0.88886285  0.77263376    -0.06100
C1017       C  0.25200431  0.89694775  0.75850025    -0.00200
C1018       C  0.25071663  0.91035289  0.72553805    -0.08700
C1019       C  0.21895664  0.92512052  0.71173438     0.61700
H1020       H  0.27844156  0.91527392  0.67894563     0.12400
H1021       H  0.28374409  0.87998587  0.79828406     0.12400
C1022       C  0.34384814  0.88127734  0.77141039     0.61900
F1023       F  0.22311469  0.93729569  0.67929692    -0.23200
F1024       F  0.20921432  0.95078751  0.73220191    -0.20600
F1025       F  0.19407167  0.90182211  0.71115015    -0.20200
F1026       F  0.34721794  0.90097242  0.79956704    -0.20300
F1027       F  0.37117218  0.88659839  0.75109841    -0.20600
F1028       F  0.34302779  0.84874272  0.78167448    -0.23300
C1029       C  0.30104009  0.67279426  0.71682866    -0.06100
C1030       C  0.29595597  0.66601284  0.75103791    -0.00200
C1031       C  0.26587079  0.65043692  0.76078737    -0.08800
C1032       C  0.23823488  0.65377573  0.73889328    -0.06100
C1033       C  0.24233163  0.66654561  0.70611725    -0.00200
C1034       C  0.27508311  0.66975430  0.69352486    -0.08700
C1035       C  0.28413348  0.66740203  0.65651409     0.61700
H1036       H  0.32537229  0.68025067  0.70824334     0.12400
H1037       H  0.21351255  0.64769387  0.74756556     0.12400
C1038       C  0.26344484  0.62919386  0.79246294     0.61900
F1039       F  0.29905783  0.69607242  0.64556213    -0.23200
F1040       F  0.25710625  0.66072701  0.63628554    -0.20600
F1041       F  0.30651293  0.64193405  0.65255496    -0.20200
F1042       F  0.27417693  0.64542853  0.82097979    -0.20300
F1043       F  0.28305733  0.60165235  0.78825799    -0.20600
F1044       F  0.23119140  0.61883847  0.79805210    -0.23300
C1045       C  0.23326686  0.78102168  0.80828843    -0.06100
C1046       C  0.24244997  0.80887698  0.82614794    -0.00200
C1047       C  0.27110658  0.80750613  0.84694983    -0.08800
C1048       C  0.29205868  0.77955697  0.84451141    -0.06100
C1049       C  0.28398061  0.75290053  0.82338468    -0.00200
C1050       C  0.25225968  0.75267391  0.80800058    -0.08700
C1051       C  0.23731864  0.72292193  0.79165558     0.61700
H1052       H  0.21144122  0.78190592  0.79271708     0.12400
H1053       H  0.31517236  0.77872404  0.85838814     0.12400
C1054       C  0.27929143  0.83465241  0.87164893     0.61900
F1055       F  0.20330411  0.72561790  0.78763327    -0.23200
F1056       F  0.24285578  0.69603028  0.81196484    -0.20600
F1057       F  0.25097926  0.71902008  0.76029087    -0.20200
F1058       F  0.25438319  0.83664090  0.89542676    -0.20300
F1059       F  0.28204081  0.86451282  0.85522027    -0.20600
F1060       F  0.30882386  0.82867400  0.88848316    -0.23300
C1061       C  0.36924611  0.74789998  0.72009080    -0.06100
C1062       C  0.37231552  0.75375818  0.75470541    -0.00200
C1063       C  0.38650294  0.78388710  0.76572465    -0.08800
C1064       C  0.39216733  0.80883323  0.74159874    -0.06100
C1065       C  0.38428377  0.80439730  0.70756078    -0.00200
C1066       C  0.37616643  0.77243614  0.69611401    -0.08700
C1067       C  0.37474904  0.76277494  0.65922773     0.61700
H1068       H  0.36074933  0.72408447  0.71165522     0.12400
H1069       H  0.40016230  0.83297086  0.74950618     0.12400
C1070       C  0.39383705  0.79073619  0.80264629     0.61900
F1071       F  0.39694555  0.73741268  0.65387508    -0.23200
F1072       F  0.38298800  0.78821258  0.63760151    -0.20600
F1073       F  0.34336812  0.75175775  0.65115616    -0.20200
F1074       F  0.41859485  0.77002709  0.81411192    -0.20300
F1075       F  0.36562579  0.78601072  0.82172372    -0.20600
F1076       F  0.40458216  0.82271845  0.80760790    -0.23300
C1077       C  0.90155053  0.15689069  0.82581903    -0.06100
C1078       C  0.87201823  0.16833529  0.84086706    -0.00200
C1079       C  0.86308774  0.15453025  0.87301075    -0.08800
C1080       C  0.88686491  0.13602055  0.89097962    -0.06100
C1081       C  0.91686624  0.12643456  0.87645710    -0.00200
C1082       C  0.92393372  0.13596584  0.84280427    -0.08700
C1083       C  0.95533984  0.12488198  0.82501513     0.61700
H1084       H  0.90684939  0.16350276  0.79998460     0.12400
H1085       H  0.88121172  0.12748247  0.91633855     0.12400
C1086       C  0.82924666  0.15689785  0.88992593     0.61900
F1087       F  0.95883877  0.13949154  0.79354337    -0.23200
F1088       F  0.95451770  0.09118890  0.82047602    -0.20600
F1089       F  0.98280317  0.13314145  0.84411969    -0.20200
F1090       F  0.80422585  0.16789388  0.86900678    -0.20300
F1091       F  0.83151212  0.17747731  0.91749913    -0.20600
F1092       F  0.81976555  0.12595701  0.90116756    -0.23300
C1093       C  0.72404906  0.19258426  0.73163916    -0.06100
C1094       C  0.73716892  0.18139457  0.70105697    -0.00200
C1095       C  0.76878538  0.16648936  0.70084546    -0.08800
C1096       C  0.78840555  0.16800430  0.73035974    -0.06100
C1097       C  0.77661821  0.18320817  0.75978032    -0.00200
C1098       C  0.74289924  0.19245892  0.76137366    -0.08700
C1099       C  0.72597751  0.20238488  0.79369249     0.61700
H1100       H  0.69923312  0.20280160  0.73204321     0.12400
H1101       H  0.81375109  0.15930378  0.72996929     0.12400
C1102       C  0.78176158  0.15004578  0.66937017     0.61900
F1103       F  0.69594730  0.18608923  0.79647590    -0.23200
F1104       F  0.72010045  0.23587484  0.79313477    -0.20600
F1105       F  0.74470847  0.19407754  0.82171620    -0.20200
F1106       F  0.78472484  0.17283380  0.64360518    -0.20300
F1107       F  0.75986359  0.12568876  0.65955464    -0.20600
F1108       F  0.81249210  0.13575293  0.67474864    -0.23300
C1109       C  0.76200713  0.31509449  0.60852536    -0.06100
C1110       C  0.79530457  0.30627794  0.61326987    -0.00200
C1111       C  0.80441833  0.27266704  0.61034459    -0.08800
C1112       C  0.77922717  0.24881879  0.60890836    -0.06100
C1113       C  0.74569385  0.25743547  0.60860298    -0.00200
C1114       C  0.73701607  0.29106778  0.60492340    -0.08700
C1115       C  0.70177384  0.30146038  0.59677192     0.61700
H1116       H  0.75558282  0.34095048  0.60876852     0.12400
H1117       H  0.78583705  0.22305907  0.60991918     0.12400
C1118       C  0.83972983  0.26000392  0.60937056     0.61900
F1119       F  0.69916425  0.33520795  0.59262047    -0.23200
F1120       F  0.68036229  0.29217705  0.62216318    -0.20600
F1121       F  0.69202531  0.28677227  0.56697383    -0.20200
F1122       F  0.84478271  0.23872585  0.63624533    -0.20300
F1123       F  0.86330421  0.28455205  0.61053067    -0.20600
F1124       F  0.84433879  0.24284282  0.57970293    -0.23300
C1125       C  0.87716698  0.27760805  0.69352953    -0.06100
C1126       C  0.86623160  0.30969758  0.70041186    -0.00200
C1127       C  0.85558947  0.31664948  0.73339838    -0.08800
C1128       C  0.84789308  0.29082720  0.75523455    -0.06100
C1129       C  0.85737169  0.25845953  0.74865756    -0.00200
C1130       C  0.87420166  0.25186800  0.71784516    -0.08700
C1131       C  0.88749754  0.21794704  0.70988935     0.61700
H1132       H  0.88724360  0.27271757  0.66882290     0.12400
H1133       H  0.83491390  0.29652504  0.77813553     0.12400
C1134       C  0.85462491  0.35079376  0.74759549     0.61900
F1135       F  0.90047146  0.21647579  0.67760198    -0.23200
F1136       F  0.86240108  0.19494722  0.71241995    -0.20600
F1137       F  0.91260599  0.20992233  0.73221910    -0.20200
F1138       F  0.82243388  0.35898105  0.75566023    -0.20300
F1139       F  0.86780126  0.37331166  0.72523227    -0.20600
F1140       F  0.87361804  0.35182274  0.77668449    -0.23300
C1141       C  0.92005927  0.38230867  0.59814061    -0.06100
C1142       C  0.88625139  0.39130089  0.60037230    -0.00200
C1143       C  0.87517105  0.41830694  0.57961074    -0.08800
C1144       C  0.89899622  0.43809371  0.56332245    -0.06100
C1145       C  0.93254525  0.42988556  0.56315195    -0.00200
C1146       C  0.94328487  0.40093067  0.57963866    -0.08700
C1147       C  0.97927803  0.38998259  0.57789588     0.61700
H1148       H  0.92852550  0.35997200  0.61004012     0.12400
H1149       H  0.89108646  0.45973437  0.54928022     0.12400
C1150       C  0.83930371  0.42812630  0.57241118     0.61900
F1151       F  0.98509915  0.36199773  0.59711996    -0.23200
F1152       F  0.99975466  0.41471558  0.58968883    -0.20600
F1153       F  0.98750879  0.38302953  0.54483377    -0.20200
F1154       F  0.81588638  0.40580925  0.58323944    -0.20300
F1155       F  0.83501813  0.43154682  0.53786993    -0.20600
F1156       F  0.83289389  0.45812392  0.58732971    -0.23300
C1157       C  0.66420450  0.29296934  0.74932572    -0.06100
C1158       C  0.69479498  0.30979791  0.75200637    -0.00200
C1159       C  0.71885673  0.30335321  0.72706337    -0.08800
C1160       C  0.70819727  0.29087820  0.69647123    -0.06100
C1161       C  0.68128504  0.26910317  0.69566752    -0.00200
C1162       C  0.65799061  0.27055638  0.72268306    -0.08700
C1163       C  0.62663135  0.24995875  0.72347626     0.61700
H1164       H  0.64575852  0.29622311  0.76871917     0.12400
H1165       H  0.72549312  0.29197610  0.67565303     0.12400
C1166       C  0.75502114  0.29744714  0.73535742     0.61900
F1167       F  0.60932636  0.25392380  0.75333204    -0.23200
F1168       F  0.63427230  0.21694088  0.72062284    -0.20600
F1169       F  0.60596682  0.25957265  0.69734074    -0.20200
F1170       F  0.75876766  0.29102692  0.76939724    -0.20300
F1171       F  0.77347267  0.32432349  0.72580669    -0.20600
F1172       F  0.76746949  0.27047180  0.71848718    -0.23300
C1173       C  0.79105881  0.32945224  0.83624565    -0.06100
C1174       C  0.75626574  0.32704853  0.83820291    -0.00200
C1175       C  0.74232683  0.29619576  0.84810619    -0.08800
C1176       C  0.76258730  0.26792984  0.84689714    -0.06100
C1177       C  0.79635530  0.26996570  0.83935950    -0.00200
C1178       C  0.81148681  0.30132669  0.83988837    -0.08700
C1179       C  0.84814942  0.30494999  0.84790137     0.61700
H1180       H  0.80207427  0.35334702  0.83150015     0.12400
H1181       H  0.75198316  0.24392003  0.85102448     0.12400
C1182       C  0.70663554  0.29249683  0.85979869     0.61900
F1183       F  0.85811542  0.33750984  0.84620867    -0.23200
F1184       F  0.86773453  0.28690417  0.82631858    -0.21800
F1185       F  0.85365562  0.29362692  0.88041845    -0.20200
F1186       F  0.68487794  0.29877017  0.83376276    -0.20300
F1187       F  0.70058360  0.31393684  0.88599969    -0.20600
F1188       F  0.70018051  0.26099021  0.87160077    -0.23300
C1189       C  0.77734078  0.41585139  0.74377977    -0.06100
C1190       C  0.74576499  0.40215443  0.74014679    -0.00200
C1191       C  0.73582545  0.39164813  0.70767226    -0.08800
C1192       C  0.76051951  0.38557487  0.68339090    -0.06100
C1193       C  0.79374888  0.39453674  0.68875890    -0.00200
C1194       C  0.80107517  0.41446254  0.71762363    -0.08700
C1195       C  0.83227087  0.43476265  0.72343370     0.61700
H1196       H  0.78407494  0.42638342  0.76792686     0.12400
H1197       H  0.75402157  0.37358055  0.65998269     0.12400
C1198       C  0.69952378  0.39055731  0.69748094     0.61900
F1199       F  0.82355315  0.46766419  0.72389516    -0.23200
F1200       F  0.85627259  0.43087152  0.69920396    -0.20600
F1201       F  0.84607219  0.42688207  0.75446838    -0.20200
F1202       F  0.68654259  0.42194781  0.69961961    -0.20300
F1203       F  0.68136137  0.37015987  0.71811605    -0.20600
F1204       F  0.69554965  0.37977631  0.66462835    -0.23300
C1205       C  0.60336616  0.14301998  0.35585150    -0.06100
C1206       C  0.60298241  0.14449131  0.39102128    -0.00200
C1207       C  0.61959950  0.17054284  0.40731860    -0.08800
C1208       C  0.63952293  0.19179276  0.38777755    -0.06100
C1209       C  0.64393347  0.18763843  0.35258915    -0.00200
C1210       C  0.62253172  0.16449328  0.33604839    -0.08700
C1211       C  0.61785672  0.15982372  0.29820783     0.61700
H1212       H  0.58901533  0.12401026  0.34341169     0.12400
H1213       H  0.65159763  0.21170458  0.40058588     0.12400
C1214       C  0.61620030  0.17619858  0.44507193     0.61900
F1215       F  0.62796704  0.12846852  0.28960813    -0.23200
F1216       F  0.63450002  0.18194494  0.27821391    -0.20600
F1217       F  0.58448869  0.16289191  0.29049997    -0.20200
F1218       F  0.63428173  0.15282389  0.46266682    -0.20300
F1219       F  0.58320191  0.17416573  0.45442900    -0.20600
F1220       F  0.62773243  0.20695765  0.45431975    -0.23300
C1221       C  0.65119417  0.93034704  0.55837669    -0.06100
C1222       C  0.61735333  0.93217631  0.56619387    -0.00200
C1223       C  0.60392395  0.90973498  0.58995704    -0.08800
C1224       C  0.62539935  0.88757992  0.60619609    -0.06100
C1225       C  0.65960960  0.88519531  0.59862793    -0.00200
C1226       C  0.67288137  0.90782111  0.57414061    -0.08700
C1227       C  0.70929809  0.90913378  0.56331954     0.61700
H1228       H  0.66084293  0.94731211  0.53966144     0.12400
H1229       H  0.61504798  0.87363012  0.62668839     0.12400
C1230       C  0.56716599  0.90883779  0.59881824     0.61900
F1231       F  0.71658033  0.93790458  0.54590879    -0.23200
F1232       F  0.71618859  0.88335958  0.54193990    -0.20600
F1233       F  0.73049678  0.90816343  0.59061742    -0.20200
F1234       F  0.54831441  0.90723570  0.56964792    -0.20300
F1235       F  0.55877730  0.93659977  0.61689663    -0.20600
F1236       F  0.55905455  0.88165599  0.61841103    -0.23300
C1237       C  0.62058882  0.94354253  0.34833568    -0.06100
C1238       C  0.62581028  0.94542629  0.38324807    -0.00200
C1239       C  0.65223910  0.92710494  0.39781073    -0.08800
C1240       C  0.67093521  0.90632123  0.37686620    -0.06100
C1241       C  0.66311803  0.90119674  0.34250650    -0.00200
C1242       C  0.63973728  0.92328498  0.32739857    -0.08700
C1243       C  0.63384876  0.92786996  0.28977572     0.61700
H1244       H  0.60167395  0.95894041  0.33683763     0.12400
H1245       H  0.69218579  0.89418910  0.38768687     0.12400
C1246       C  0.66025825  0.92806248  0.43538713     0.61900
F1247       F  0.63423615  0.96111383  0.28191801    -0.23200
F1248       F  0.60306973  0.91531029  0.28130372    -0.20600
F1249       F  0.65770382  0.91337372  0.27016571    -0.20200
F1250       F  0.63215564  0.92058486  0.45392266    -0.20300
F1251       F  0.67178551  0.95892342  0.44406913    -0.20600
F1252       F  0.68449965  0.90548586  0.44433780    -0.23300
C1253       C  0.43317893  0.93309537  0.60882509    -0.06100
C1254       C  0.42841322  0.93020861  0.57409653    -0.00200
C1255       C  0.40349433  0.90869692  0.56197970    -0.08800
C1256       C  0.38395391  0.89120522  0.58541124    -0.06100
C1257       C  0.38833709  0.89428545  0.62055293    -0.00200
C1258       C  0.41424144  0.91569859  0.63246915    -0.08700
C1259       C  0.42419744  0.92298162  0.66905559     0.61700
H1260       H  0.45203039  0.94987670  0.61802707     0.12400
H1261       H  0.36513005  0.87508455  0.57577217     0.12400
C1262       C  0.39752596  0.90382648  0.52456073     0.61900
F1263       F  0.45788648  0.91745268  0.67284146    -0.23200
F1264       F  0.40863690  0.90476466  0.69366256    -0.20600
F1265       F  0.41798544  0.95582674  0.67553177    -0.20200
F1266       F  0.37602276  0.87800341  0.51823523    -0.20300
F1267       F  0.42725890  0.89690602  0.50881693    -0.20600
F1268       F  0.38371367  0.93204269  0.51087241    -0.23300
C1269       C  0.61247300  0.16361806  0.56383530    -0.06100
C1270       C  0.60466304  0.13318823  0.57846897    -0.00200
C1271       C  0.61475485  0.12622744  0.61192935    -0.08800
C1272       C  0.63391504  0.14968021  0.62896094    -0.06100
C1273       C  0.64551444  0.17860949  0.61299008    -0.00200
C1274       C  0.63078679  0.18749200  0.58140482    -0.08700
C1275       C  0.63081267  0.22184296  0.56610225     0.61700
H1276       H  0.60310013  0.16924969  0.53875756     0.12400
H1277       H  0.64043973  0.14499206  0.65498818     0.12400
C1278       C  0.60734896  0.09337270  0.62892678     0.61900
F1279       F  0.59895763  0.22994622  0.55591833    -0.23200
F1280       F  0.65124553  0.22266596  0.53810553    -0.20600
F1281       F  0.64059816  0.24560825  0.58869280    -0.20200
F1282       F  0.61846565  0.06793946  0.60883207    -0.20300
F1283       F  0.57360779  0.09012262  0.63404428    -0.20600
F1284       F  0.62289894  0.09043055  0.66000236    -0.23300
C1285       C  0.39831340  0.88315379  0.37012254    -0.06100
C1286       C  0.39859100  0.88753377  0.33476727    -0.00200
C1287       C  0.42082553  0.91192699  0.32093878    -0.08800
C1288       C  0.43877869  0.93207826  0.34328957    -0.06100
C1289       C  0.43656988  0.92872743  0.37832538    -0.00200
C1290       C  0.41729181  0.90281276  0.39198564    -0.08700
C1291       C  0.41639541  0.89587387  0.42959677     0.61700
H1292       H  0.38239997  0.86499232  0.38141761     0.12400
H1293       H  0.45500038  0.95104025  0.33339912     0.12400
C1294       C  0.42881217  0.91612242  0.28328568     0.61900
F1295       F  0.40290402  0.86529216  0.43682087    -0.23200
F1296       F  0.39723028  0.91945266  0.44516752    -0.20600
F1297       F  0.44824567  0.89638991  0.44268270    -0.20200
F1298       F  0.40099903  0.91579437  0.26305862    -0.20300
F1299       F  0.45007377  0.89137935  0.27338129    -0.20600
F1300       F  0.44462101  0.94575544  0.27676443    -0.23300
C1301       C  0.25214313  0.77617207  0.33183980    -0.06100
C1302       C  0.24449613  0.76344902  0.29944008    -0.00200
C1303       C  0.26736224  0.77059185  0.27330167    -0.08800
C1304       C  0.29928381  0.77988335  0.28216350    -0.06100
C1305       C  0.30452204  0.79897339  0.31101174    -0.00200
C1306       C  0.28092489  0.79580919  0.33753941    -0.08700
C1307       C  0.28628213  0.81146064  0.37172100     0.61700
H1308       H  0.23521087  0.77183468  0.35240717     0.12400
H1309       H  0.31766861  0.77945730  0.26240425     0.12400
C1310       C  0.25753359  0.77871849  0.23725441     0.61900
F1311       F  0.25999361  0.80546130  0.39334512    -0.23200
F1312       F  0.28960571  0.84513448  0.36832926    -0.20600
F1313       F  0.31454381  0.79846756  0.38642966    -0.20200
F1314       F  0.22427945  0.78561703  0.23504551    -0.20300
F1315       F  0.26585745  0.75321584  0.21632127    -0.20600
F1316       F  0.27373298  0.80640772  0.22557870    -0.23300
C1317       C  0.12706634  0.68965549  0.34775214    -0.06100
C1318       C  0.15895827  0.67774143  0.33973800    -0.00200
C1319       C  0.17099248  0.65033816  0.35892810    -0.08800
C1320       C  0.14814779  0.63102517  0.37716638    -0.06100
C1321       C  0.11527219  0.64101862  0.38153626    -0.00200
C1322       C  0.10496730  0.67180427  0.36837359    -0.08700
C1323       C  0.07047721  0.68527291  0.37510763     0.61700
H1324       H  0.11922167  0.71307450  0.33749649     0.12400
H1325       H  0.15650511  0.60864514  0.38958800     0.12400
C1326       C  0.20737266  0.64181250  0.36393014     0.61900
F1327       F  0.06472527  0.71447349  0.35786251    -0.23200
F1328       F  0.06688704  0.69132571  0.40920908    -0.20600
F1329       F  0.04677329  0.66275313  0.36499789    -0.20200
F1330       F  0.22847607  0.66627073  0.35271469    -0.20300
F1331       F  0.21460584  0.61270944  0.34762235    -0.20600
F1332       F  0.21364423  0.63751715  0.39805106    -0.23300
C1333       C  0.15759992  0.78048871  0.18241632    -0.06100
C1334       C  0.16342596  0.81068503  0.19853902    -0.00200
C1335       C  0.15894161  0.81207345  0.23408176    -0.08800
C1336       C  0.15646973  0.78242288  0.25249689    -0.06100
C1337       C  0.15795802  0.75181899  0.23647749    -0.00200
C1338       C  0.15528205  0.75074961  0.20098204    -0.08700
C1339       C  0.14956743  0.71831713  0.18330274     0.61700
H1340       H  0.15673095  0.78012845  0.15511610     0.12400
H1341       H  0.15683359  0.78318316  0.27986657     0.12400
C1342       C  0.15763780  0.84347259  0.25418630     0.61900
F1343       F  0.14716555  0.72237423  0.14867230    -0.23200
F1344       F  0.12025570  0.70460680  0.19478003    -0.20600
F1345       F  0.17518430  0.69674970  0.19014554    -0.20200
F1346       F  0.15888730  0.87124616  0.23409212    -0.20300
F1347       F  0.18376197  0.84396929  0.27682080    -0.20600
F1348       F  0.12827848  0.84429758  0.27218565    -0.23300
C1349       C  0.30843923  0.89917327  0.21899917    -0.06100
C1350       C  0.30142524  0.89350991  0.25314439    -0.00200
C1351       C  0.26789697  0.88996608  0.26317352    -0.08800
C1352       C  0.24319963  0.88718293  0.23824391    -0.06100
C1353       C  0.25075498  0.88856747  0.20383936    -0.00200
C1354       C  0.28356613  0.89675013  0.19407474    -0.08700
C1355       C  0.29305626  0.89887318  0.15738423     0.61700
H1356       H  0.33421082  0.90145083  0.21161845     0.12400
H1357       H  0.21792876  0.88274757  0.24572530     0.12400
C1358       C  0.25736629  0.88654389  0.29965746     0.61900
F1359       F  0.32584553  0.90806714  0.15296541    -0.23200
F1360       F  0.27326043  0.92147569  0.14068310    -0.20600
F1361       F  0.28870145  0.86829815  0.14360136    -0.20200
F1362       F  0.28244645  0.89494437  0.32179247    -0.20300
F1363       F  0.24773357  0.85445802  0.30585535    -0.20600
F1364       F  0.23074760  0.90711610  0.30578540    -0.23300
C1365       C  0.16729448  0.91379411  0.08186392    -0.06100
C1366       C  0.15999327  0.90808354  0.11633837    -0.00200
C1367       C  0.13306824  0.92633956  0.13059449    -0.08800
C1368       C  0.11169198  0.94381751  0.10883631    -0.06100
C1369       C  0.11738322  0.94644554  0.07408315    -0.00200
C1370       C  0.14646370  0.93240984  0.06046391    -0.08700
C1371       C  0.15613863  0.93783540  0.02376985     0.61700
H1372       H  0.18985111  0.90409231  0.07138009     0.12400
H1373       H  0.09000346  0.95575590  0.11931871     0.12400
C1374       C  0.12469044  0.92881605  0.16798360     0.61900
F1375       F  0.18742812  0.92561097  0.01683099    -0.23200
F1376       F  0.15629157  0.97117041  0.01647317    -0.20600
F1377       F  0.13386523  0.92211286  0.00278334    -0.20200
F1378       F  0.11802503  0.96128514  0.17590847    -0.20300
F1379       F  0.14984712  0.91884831  0.18913220    -0.20600
F1380       F  0.09669719  0.91024492  0.17473397    -0.23300
C1381       C  0.37790573  0.75223708  0.21924751    -0.06100
C1382       C  0.37002393  0.76169759  0.18617639    -0.00200
C1383       C  0.37055683  0.79553491  0.17747250    -0.08800
C1384       C  0.37394142  0.81887399  0.20323102    -0.06100
C1385       C  0.37877558  0.80954415  0.23693970    -0.00200
C1386       C  0.38271046  0.77553086  0.24494925    -0.08700
C1387       C  0.38987711  0.76175953  0.27995335     0.61700
H1388       H  0.37863853  0.72623120  0.22549632     0.12400
H1389       H  0.37090339  0.84478276  0.19717378     0.12400
C1390       C  0.36552851  0.80856797  0.14206576     0.61900
F1391       F  0.36395570  0.74174871  0.29003975    -0.23200
F1392       F  0.39441942  0.78548082  0.30417164    -0.20600
F1393       F  0.41844854  0.74300022  0.27871055    -0.20200
F1394       F  0.33463084  0.82285968  0.14024829    -0.20300
F1395       F  0.36801467  0.78448814  0.11779762    -0.20600
F1396       F  0.38923374  0.83224793  0.13497015    -0.23300
C1397       C  0.30220382  0.68581404  0.22795315    -0.06100
C1398       C  0.29472040  0.67655057  0.19468672    -0.00200
C1399       C  0.26562994  0.65689848  0.18949199    -0.08800
C1400       C  0.24106743  0.65671893  0.21490547    -0.06100
C1401       C  0.24689738  0.67071840  0.24647403    -0.00200
C1402       C  0.27968605  0.68008881  0.25452564    -0.08700
C1403       C  0.29158713  0.67985889  0.29084730     0.61700
H1404       H  0.32588999  0.69729158  0.23311307     0.12400
H1405       H  0.21671163  0.64666278  0.20961553     0.12400
C1406       C  0.25837382  0.63556227  0.15899654     0.61900
F1407       F  0.32535029  0.68555610  0.29298024    -0.23200
F1408       F  0.28520631  0.64926381  0.30488361    -0.20600
F1409       F  0.27565730  0.70320405  0.30974320    -0.20200
F1410       F  0.28154899  0.63813370  0.13368043    -0.20300
F1411       F  0.22761716  0.64343321  0.14566641    -0.20600
F1412       F  0.25751181  0.60304514  0.16945536    -0.23300
C1413       C  0.23306466  0.77863437  0.13126048    -0.06100
C1414       C  0.24191050  0.81000467  0.11996512    -0.00200
C1415       C  0.27015484  0.81273222  0.09813358    -0.08800
C1416       C  0.29176507  0.78523004  0.09552514    -0.06100
C1417       C  0.28436874  0.75513324  0.11139166    -0.00200
C1418       C  0.25228391  0.75105041  0.12439725    -0.08700
C1419       C  0.23701034  0.71790119  0.12974720     0.61700
H1420       H  0.21044257  0.77526268  0.14523869     0.12400
H1421       H  0.31518946  0.78781880  0.08242366     0.12400
C1422       C  0.27910602  0.84281323  0.07702478     0.61900
F1423       F  0.23298385  0.71256263  0.16385286    -0.23200
F1424       F  0.25633303  0.69361828  0.11573104    -0.20600
F1425       F  0.20636864  0.71686430  0.11402530    -0.20200
F1426       F  0.31184151  0.85148692  0.08260069    -0.20300
F1427       F  0.25972952  0.86992254  0.08354345    -0.20600
F1428       F  0.27551177  0.83503973  0.04328777    -0.23300
C1429       C  0.60924593  0.40410082  0.07455026    -0.06100
C1430       C  0.62205296  0.43431578  0.06373909    -0.00200
C1431       C  0.65558131  0.44229194  0.07051717    -0.08800
C1432       C  0.67432955  0.42048496  0.09033100    -0.06100
C1433       C  0.66085385  0.39126199  0.10383746    -0.00200
C1434       C  0.62894312  0.38111846  0.09199598    -0.08700
C1435       C  0.61529922  0.34627691  0.09407707     0.61700
H1436       H  0.58402438  0.39766647  0.06760365     0.12400
H1437       H  0.70004191  0.42625877  0.09523321     0.12400
C1438       C  0.67141590  0.47411107  0.05808595     0.61900
F1439       F  0.59986185  0.33828667  0.06394839    -0.23200
F1440       F  0.59207133  0.34409739  0.11961739    -0.20600
F1441       F  0.63981403  0.32315422  0.09913522    -0.20200
F1442       F  0.65239434  0.50070768  0.06781139    -0.20300
F1443       F  0.67399060  0.47365484  0.02329226    -0.20600
F1444       F  0.70299639  0.47850088  0.07111122    -0.23300
C1445       C  0.64358305  0.63652391  0.89184697    -0.06100
C1446       C  0.60917503  0.63784247  0.88716267    -0.00200
C1447       C  0.59565134  0.66176084  0.86505059    -0.08800
C1448       C  0.61754008  0.68204604  0.84680423    -0.06100
C1449       C  0.65239215  0.67843516  0.84860287    -0.00200
C1450       C  0.66551923  0.65710888  0.87420949    -0.08700
C1451       C  0.70179911  0.65387269  0.88480074     0.61700
H1452       H  0.65378614  0.61882759  0.90965065     0.12400
H1453       H  0.60696848  0.70109948  0.83120394     0.12400
C1454       C  0.55842228  0.66619823  0.86062058     0.61900
F1455       F  0.70394998  0.65558720  0.91963578    -0.23200
F1456       F  0.72243215  0.67794577  0.87218504    -0.20600
F1457       F  0.71361479  0.62352521  0.87477533    -0.20200
F1458       F  0.54338389  0.66903718  0.89182593    -0.20300
F1459       F  0.54529947  0.63951502  0.84371945    -0.20600
F1460       F  0.55081894  0.69418346  0.84204137    -0.23300
C1461       C  0.60953555  0.65737822  0.06727659    -0.06100
C1462       C  0.60574409  0.62537578  0.07957315    -0.00200
C1463       C  0.62005952  0.61637864  0.11077964    -0.08800
C1464       C  0.63852187  0.63998774  0.12847250    -0.06100
C1465       C  0.64403771  0.67211379  0.11574193    -0.00200
C1466       C  0.62668727  0.68163453  0.08552290    -0.08700
C1467       C  0.62541432  0.71630202  0.07060598     0.61700
H1468       H  0.59816091  0.66361271  0.04323668     0.12400
H1469       H  0.64781368  0.63328263  0.15308104     0.12400
C1470       C  0.61667348  0.58167146  0.12490405     0.61900
F1471       F  0.59507829  0.72175693  0.05507819    -0.23200
F1472       F  0.64992843  0.71977188  0.04648253    -0.20600
F1473       F  0.62879751  0.74048256  0.09458353    -0.20200
F1474       F  0.62681916  0.55910425  0.10106523    -0.20300
F1475       F  0.58396258  0.57562760  0.13331149    -0.20600
F1476       F  0.63583585  0.57694192  0.15356990    -0.23300
C1477       C  0.42461750  0.62961842  0.85409882    -0.06100
C1478       C  0.42042259  0.62998560  0.88902501    -0.00200
C1479       C  0.39611655  0.65067153  0.90329225    -0.08800
C1480       C  0.37573541  0.66926819  0.88143423    -0.06100
C1481       C  0.37894263  0.66807744  0.84589715    -0.00200
C1482       C  0.40459770  0.64768440  0.83200166    -0.08700
C1483       C  0.41372288  0.64259875  0.79478174     0.61700
H1484       H  0.44359464  0.61390465  0.84342218     0.12400
H1485       H  0.35705940  0.68447296  0.89265303     0.12400
C1486       C  0.39227705  0.65397573  0.94130409     0.61900
F1487       F  0.44596419  0.65328296  0.78984214    -0.23200
F1488       F  0.39425665  0.65826352  0.77115944    -0.20600
F1489       F  0.41233615  0.60931359  0.78768652    -0.20200
F1490       F  0.42282379  0.66038474  0.95583194    -0.20300
F1491       F  0.37941468  0.62525627  0.95482400    -0.20600
F1492       F  0.37111735  0.67943820  0.94974412    -0.23300
C1493       C  0.67394829  0.42956982  0.85378785    -0.06100
C1494       C  0.65921951  0.40653003  0.83180711    -0.00200
C1495       C  0.62391747  0.40770790  0.82790338    -0.08800
C1496       C  0.60543382  0.42728146  0.85038149    -0.06100
C1497       C  0.62055903  0.44819606  0.87384053    -0.00200
C1498       C  0.65559394  0.45059993  0.87443813    -0.08700
C1499       C  0.67402993  0.47583601  0.89567673     0.61700
H1500       H  0.70074369  0.43102608  0.85469371     0.12400
H1501       H  0.57857551  0.42685038  0.84922434     0.12400
C1502       C  0.60481498  0.39200058  0.79909478     0.61900
F1503       F  0.70749428  0.47713102  0.88793092    -0.23200
F1504       F  0.67132557  0.46781457  0.92953016    -0.20600
F1505       F  0.66106166  0.50688495  0.88986985    -0.20200
F1506       F  0.59700851  0.35980144  0.80729808    -0.20300
F1507       F  0.62270262  0.39364822  0.76937441    -0.20600
F1508       F  0.57525530  0.40840619  0.79301470    -0.23300
C1509       C  0.40814763  0.64584067  0.05266026    -0.06100
C1510       C  0.42296258  0.62122095  0.07248485    -0.00200
C1511       C  0.41925909  0.62210169  0.10793704    -0.08800
C1512       C  0.39936056  0.64687206  0.12192357    -0.06100
C1513       C  0.38199681  0.67027285  0.10202650    -0.00200
C1514       C  0.38956865  0.67164642  0.06680516    -0.08700
C1515       C  0.38242634  0.70082428  0.04376596     0.61700
H1516       H  0.41228385  0.64552457  0.02562435     0.12400
H1517       H  0.39665791  0.64772796  0.14907638     0.12400
C1518       C  0.43479385  0.59628355  0.13099510     0.61900
F1519       F  0.40716754  0.70427645  0.01976528    -0.23200
F1520       F  0.38175204  0.73000196  0.06148221    -0.20600
F1521       F  0.35280896  0.69587678  0.02688650    -0.20200
F1522       F  0.46894775  0.59930398  0.13044061    -0.20300
F1523       F  0.42583237  0.56512751  0.12041856    -0.20600
F1524       F  0.42455813  0.59957140  0.16415173    -0.23300
C1525       C  0.42532703  0.38475417  0.84114510    -0.06100
C1526       C  0.39051159  0.38865490  0.83751088    -0.00200
C1527       C  0.37532150  0.41583092  0.85447368    -0.08800
C1528       C  0.39585985  0.43880458  0.87081087    -0.06100
C1529       C  0.43026777  0.43502684  0.87297398    -0.00200
C1530       C  0.44547768  0.40760931  0.85798776    -0.08700
C1531       C  0.48262939  0.40164727  0.86105835     0.61700
H1532       H  0.43714302  0.36271836  0.83231880     0.12400
H1533       H  0.38491170  0.46021220  0.88256064     0.12400
C1534       C  0.33807139  0.42251275  0.85600844     0.61900
F1535       F  0.49197043  0.37173097  0.84751691    -0.23200
F1536       F  0.49190716  0.40170014  0.89470167    -0.20600
F1537       F  0.49970783  0.42610662  0.84399338    -0.20200
F1538       F  0.33016312  0.44063521  0.88438462    -0.20300
F1539       F  0.31951077  0.39407771  0.85799769    -0.20600
F1540       F  0.32853013  0.44060297  0.82797714    -0.23300
C1541       C  0.27659065  0.33815892  0.70242936    -0.06100
C1542       C  0.25322377  0.36371039  0.70227704    -0.00200
C1543       C  0.25349601  0.38527115  0.73063019    -0.08800
C1544       C  0.27705651  0.37935241  0.75689261    -0.06100
C1545       C  0.29575825  0.34992775  0.75833149    -0.00200
C1546       C  0.29042669  0.32690986  0.73231522    -0.08700
C1547       C  0.28619069  0.29041406  0.73895117     0.61700
H1548       H  0.27922516  0.32217766  0.68105825     0.12400
H1549       H  0.27977792  0.39682512  0.77720032     0.12400
C1550       C  0.23002351  0.41416774  0.73360166     0.61900
F1551       F  0.26250793  0.27646768  0.71810022    -0.23200
F1552       F  0.27515453  0.28580950  0.77143554    -0.20600
F1553       F  0.31546382  0.27395834  0.73372075    -0.20200
F1554       F  0.19760429  0.40377763  0.72948542    -0.20300
F1555       F  0.23781577  0.43759756  0.70945251    -0.20600
F1556       F  0.23236291  0.42895110  0.76491431    -0.23300
C1557       C  0.16196055  0.42933828  0.61747105    -0.06100
C1558       C  0.16028730  0.39498263  0.61212445    -0.00200
C1559       C  0.13793659  0.38348939  0.58634209    -0.08800
C1560       C  0.11946250  0.40658548  0.56765134    -0.06100
C1561       C  0.12164539  0.44050167  0.57282708    -0.00200
C1562       C  0.14326182  0.45224504  0.59828296    -0.08700
C1563       C  0.14728261  0.48882056  0.60484117     0.61700
H1564       H  0.17791002  0.43881094  0.63683952     0.12400
H1565       H  0.10248153  0.39764028  0.54850301     0.12400
C1566       C  0.13106133  0.34783999  0.57600047     0.61900
F1567       F  0.17276619  0.49518027  0.62735858    -0.23200
F1568       F  0.11834960  0.50127254  0.61837338    -0.20600
F1569       F  0.15445038  0.50511892  0.57495788    -0.20200
F1570       F  0.09791736  0.34094661  0.58171601    -0.20300
F1571       F  0.14923789  0.32394971  0.59228166    -0.20600
F1572       F  0.13721639  0.34462615  0.54180733    -0.23300
C1573       C  0.27415006  0.25043403  0.86138452    -0.06100
C1574       C  0.24680002  0.26451245  0.84450796    -0.00200
C1575       C  0.24732660  0.29888680  0.83824147    -0.08800
C1576       C  0.27727476  0.31610586  0.84226646    -0.06100
C1577       C  0.30678132  0.29959496  0.85019936    -0.00200
C1578       C  0.30485597  0.26725719  0.86318652    -0.08700
C1579       C  0.33545432  0.25051728  0.87728284     0.61700
H1580       H  0.27235531  0.22525473  0.87011531     0.12400
H1581       H  0.27870018  0.34174344  0.83486157     0.12400
C1582       C  0.21676818  0.31735517  0.82697099     0.61900
F1583       F  0.32836343  0.21934381  0.88958980    -0.23200
F1584       F  0.34808633  0.26910565  0.90346459    -0.20600
F1585       F  0.35931681  0.24770292  0.85243447    -0.20200
F1586       F  0.19140124  0.31083880  0.84944563    -0.20300
F1587       F  0.20788194  0.30775608  0.79489887    -0.20600
F1588       F  0.22184990  0.35106227  0.82623423    -0.23300
C1589       C  0.18248871  0.24614008  0.72208447    -0.06100
C1590       C  0.16883977  0.25774393  0.75207705    -0.00200
C1591       C  0.14931094  0.28679559  0.75087702    -0.08800
C1592       C  0.15090283  0.30688411  0.72147537    -0.06100
C1593       C  0.16826819  0.29659866  0.69258340    -0.00200
C1594       C  0.18058575  0.26403182  0.69195992    -0.08700
C1595       C  0.19261132  0.24744328  0.66030968     0.61700
H1596       H  0.19501064  0.22277673  0.72213403     0.12400
H1597       H  0.13992656  0.33118610  0.72143628     0.12400
C1598       C  0.12643057  0.29599017  0.77960796     0.61900
F1599       F  0.17985418  0.21586465  0.65879967    -0.23200
F1600       F  0.22683542  0.24558816  0.66084966    -0.20600
F1601       F  0.18209210  0.26406799  0.63175944    -0.20200
F1602       F  0.14364700  0.29818857  0.80951970    -0.20300
F1603       F  0.10223537  0.27210518  0.78303088    -0.20600
F1604       F  0.11086084  0.32583990  0.77369660    -0.23300
C1605       C  0.14318860  0.12666152  0.88304604    -0.06100
C1606       C  0.11057079  0.13729635  0.88774673    -0.00200
C1607       C  0.10101373  0.16873721  0.87587921    -0.08800
C1608       C  0.12427404  0.18791920  0.85817031    -0.06100
C1609       C  0.15676420  0.17681823  0.85136795    -0.00200
C1610       C  0.16721607  0.14675769  0.86727905    -0.08700
C1611       C  0.20301731  0.13512489  0.87020817     0.61700
H1612       H  0.15033676  0.10291357  0.89336460     0.12400
H1613       H  0.11702703  0.21228734  0.85008369     0.12400
C1614       C  0.06600965  0.18165609  0.88095929     0.61900
F1615       F  0.20825078  0.12061756  0.90150896    -0.23200
F1616       F  0.22555196  0.16055534  0.86752711    -0.20600
F1617       F  0.20942929  0.11188809  0.84574430    -0.20200
F1618       F  0.06020386  0.18658250  0.91492851    -0.20300
F1619       F  0.04332173  0.15921075  0.86858682    -0.20600
F1620       F  0.06086701  0.21129765  0.86435108    -0.23300
C1621       C  0.37569784  0.28472115  0.69287834    -0.06100
C1622       C  0.37593257  0.25062859  0.69793345    -0.00200
C1623       C  0.38682090  0.23797283  0.72955816    -0.08800
C1624       C  0.38825785  0.25965317  0.75723530    -0.06100
C1625       C  0.38404151  0.29370810  0.75293692    -0.00200
C1626       C  0.38158704  0.30668326  0.71959094    -0.08700
C1627       C  0.38510733  0.34316383  0.71182891     0.61700
H1628       H  0.36998659  0.29407163  0.66796347     0.12400
H1629       H  0.39205189  0.25014363  0.78255411     0.12400
C1630       C  0.39867971  0.20266038  0.73383187     0.61900
F1631       F  0.38569487  0.34923912  0.67739769    -0.23200
F1632       F  0.41455443  0.35468376  0.72516992    -0.20600
F1633       F  0.35915619  0.36070985  0.72517054    -0.20200
F1634       F  0.37551800  0.18028765  0.72244612    -0.20300
F1635       F  0.40555321  0.19524919  0.76728258    -0.20600
F1636       F  0.42758904  0.19867939  0.71560213    -0.23300
C1637       C  0.30728941  0.29109078  0.61683808    -0.06100
C1638       C  0.29724836  0.25864034  0.61063893    -0.00200
C1639       C  0.26594130  0.25356003  0.59456626    -0.08800
C1640       C  0.24330782  0.27987928  0.59362460    -0.06100
C1641       C  0.25123929  0.31029219  0.60760459    -0.00200
C1642       C  0.28494571  0.31743018  0.61419772    -0.08700
C1643       C  0.29852458  0.35213656  0.61686842     0.61700
H1644       H  0.33242438  0.29577848  0.62506175     0.12400
H1645       H  0.21835338  0.27586858  0.58434759     0.12400
C1646       C  0.25432832  0.22200357  0.57812430     0.61900
F1647       F  0.31687688  0.35571241  0.64611315    -0.23200
F1648       F  0.27384951  0.37568826  0.61628360    -0.20600
F1649       F  0.31926952  0.35794753  0.58972083    -0.20200
F1650       F  0.27572972  0.19610744  0.58265026    -0.20300
F1651       F  0.25096389  0.22753147  0.54380092    -0.20600
F1652       F  0.22368373  0.21299837  0.59084650    -0.23300
C1653       C  0.30144738  0.19725042  0.73509702    -0.06100
C1654       C  0.28996843  0.18699730  0.70357057    -0.00200
C1655       C  0.25768438  0.17315462  0.70142054    -0.08800
C1656       C  0.23671330  0.17431698  0.73012026    -0.06100
C1657       C  0.24794296  0.18718737  0.76095548    -0.00200
C1658       C  0.28196157  0.19464832  0.76412821    -0.08700
C1659       C  0.29926261  0.19817379  0.79757815     0.61700
H1660       H  0.32609019  0.20720707  0.73743993     0.12400
H1661       H  0.21101205  0.16680008  0.72820466     0.12400
C1662       C  0.24512659  0.15856096  0.66884677     0.61900
F1663       F  0.32700403  0.17813472  0.79830125    -0.23200
F1664       F  0.27916126  0.18869251  0.82405732    -0.20600
F1665       F  0.30929266  0.23033522  0.80138356    -0.20200
F1666       F  0.26431236  0.13170290  0.66042350    -0.20300
F1667       F  0.24709675  0.18174946  0.64347296    -0.20600
F1668       F  0.21247997  0.14827285  0.67139688    -0.23300
C1669       C  0.38675445  0.10941737  0.58024692    -0.06100
C1670       C  0.41832893  0.12047641  0.57108044    -0.00200
C1671       C  0.42765357  0.15315327  0.57778739    -0.08800
C1672       C  0.40578530  0.17295480  0.59625075    -0.06100
C1673       C  0.37508364  0.16113690  0.60881934    -0.00200
C1674       C  0.36407036  0.12965571  0.59729589    -0.08700
C1675       C  0.32872107  0.11683418  0.59975566     0.61700
H1676       H  0.37950153  0.08468473  0.57320466     0.12400
H1677       H  0.41266870  0.19826497  0.60070797     0.12400
C1678       C  0.45997141  0.16732496  0.56439072     0.61900
F1679       F  0.32103271  0.09785554  0.57187383    -0.23200
F1680       F  0.30585015  0.14197304  0.60029043    -0.20600
F1681       F  0.32542058  0.09730454  0.62824153    -0.20200
F1682       F  0.46113068  0.16373320  0.52970019    -0.20300
F1683       F  0.48656337  0.15098792  0.57881505    -0.20600
F1684       F  0.46317716  0.20048503  0.57153973    -0.23300
C1685       C  0.17745530  0.41762395  0.36636793    -0.06100
C1686       C  0.16737610  0.40894483  0.33332765    -0.00200
C1687       C  0.13877541  0.42525833  0.31965876    -0.08800
C1688       C  0.11899491  0.44414113  0.34134706    -0.06100
C1689       C  0.12775640  0.44963148  0.37498106    -0.00200
C1690       C  0.15783074  0.43699565  0.38766907    -0.08700
C1691       C  0.16944462  0.44442526  0.42336338     0.61700
H1692       H  0.20124053  0.40966686  0.37575686     0.12400
H1693       H  0.09606702  0.45473509  0.33190777     0.12400
C1694       C  0.12721406  0.42399596  0.28306663     0.61900
F1695       F  0.20132018  0.43313173  0.42934435    -0.23200
F1696       F  0.14865283  0.42934956  0.44647119    -0.20600
F1697       F  0.16921562  0.47805372  0.42856064    -0.20200
F1698       F  0.15239684  0.41689614  0.26092670    -0.20300
F1699       F  0.11464632  0.45429536  0.27323917    -0.20600
F1700       F  0.10222172  0.40089157  0.27991341    -0.23300
C1701       C  0.15228984  0.26509233  0.22592482    -0.06100
C1702       C  0.17085668  0.26731400  0.19598483    -0.00200
C1703       C  0.18803262  0.29668928  0.18935535    -0.08800
C1704       C  0.19423380  0.31819589  0.21571949    -0.06100
C1705       C  0.17857459  0.31515350  0.24699338    -0.00200
C1706       C  0.15543264  0.28903878  0.25175647    -0.08700
C1707       C  0.13640161  0.28460148  0.28449177     0.61700
H1708       H  0.13695769  0.24358368  0.22979706     0.12400
H1709       H  0.21208586  0.33746892  0.21149901     0.12400
C1710       C  0.19940394  0.30717473  0.15482283     0.61900
F1711       F  0.12031436  0.25451257  0.28584153    -0.23200
F1712       F  0.11266435  0.30889880  0.28724311    -0.20600
F1713       F  0.15775853  0.28617026  0.31175675    -0.20200
F1714       F  0.18572999  0.33751128  0.14707409    -0.20300
F1715       F  0.18946678  0.28544654  0.13014547    -0.20600
F1716       F  0.23344981  0.31023606  0.15516817    -0.23300
C1717       C  0.15035080  0.17188183  0.08355555    -0.06100
C1718       C  0.14925723  0.16920252  0.11921531    -0.00200
C1719       C  0.12369389  0.14878397  0.13341156    -0.08800
C1720       C  0.10408508  0.12943585  0.11166203    -0.06100
C1721       C  0.10638099  0.13153683  0.07643632    -0.00200
C1722       C  0.13000362  0.15317299  0.06200499    -0.08700
C1723       C  0.13454246  0.15623040  0.02396940     0.61700
H1724       H  0.16626238  0.18980426  0.07185565     0.12400
H1725       H  0.08571899  0.11297249  0.12245171     0.12400
C1726       C  0.11579160  0.14527076  0.17092852     0.61900
F1727       F  0.16287643  0.17376156  0.01565805    -0.23200
F1728       F  0.10768998  0.17244712  0.00989368    -0.20600
F1729       F  0.13743184  0.12532046  0.00982520    -0.20200
F1730       F  0.12533885  0.17195681  0.18981837    -0.20300
F1731       F  0.13103483  0.11732684  0.18355365    -0.20600
F1732       F  0.08188560  0.14196112  0.17548690    -0.23300
C1733       C  0.30868446  0.29378287  0.33601096    -0.06100
C1734       C  0.29572432  0.26184215  0.33603301    -0.00200
C1735       C  0.26154464  0.25767060  0.34323502    -0.08800
C1736       C  0.24047407  0.28501231  0.33924081    -0.06100
C1737       C  0.25344218  0.31646435  0.33306470    -0.00200
C1738       C  0.28785387  0.32141304  0.33680784    -0.08700
C1739       C  0.30330740  0.35467052  0.34338373     0.61700
H1740       H  0.33515041  0.29712344  0.33557595     0.12400
H1741       H  0.21387311  0.28174027  0.34063606     0.12400
C1742       C  0.24700489  0.22666953  0.35866355     0.61900
F1743       F  0.32043892  0.35338858  0.37365320    -0.23200
F1744       F  0.28020144  0.37966713  0.34546469    -0.20600
F1745       F  0.32536525  0.36212304  0.31812514    -0.20200
F1746       F  0.23836626  0.23318040  0.39172388    -0.20300
F1747       F  0.26894380  0.20059073  0.35875130    -0.20600
F1748       F  0.21864781  0.21752387  0.34155286    -0.23300
C1749       C  0.25428482  0.19347019  0.27167890    -0.06100
C1750       C  0.28443447  0.17853276  0.26398610    -0.00200
C1751       C  0.28524028  0.15538315  0.23715644    -0.08800
C1752       C  0.25722926  0.15320560  0.21551264    -0.06100
C1753       C  0.22957452  0.17361152  0.22017855    -0.00200
C1754       C  0.22621879  0.18927853  0.25149695    -0.08700
C1755       C  0.19325271  0.19985977  0.26538604     0.61700
H1756       H  0.25285993  0.20933143  0.29324355     0.12400
H1757       H  0.25808392  0.13817686  0.19309527     0.12400
C1758       C  0.31619686  0.13593043  0.22910384     0.61900
F1759       F  0.18687995  0.18213564  0.29457733    -0.23200
F1760       F  0.16760862  0.19385173  0.24312111    -0.20600
F1761       F  0.19447623  0.23287264  0.27313391    -0.20200
F1762       F  0.32320473  0.11458090  0.25539915    -0.20300
F1763       F  0.34257450  0.15711699  0.22416790    -0.20600
F1764       F  0.31240943  0.11742354  0.20013232    -0.23300
C1765       C  0.38518739  0.17291786  0.38141782    -0.06100
C1766       C  0.38087875  0.16721396  0.34640571    -0.00200
C1767       C  0.39878849  0.14030066  0.33174279    -0.08800
C1768       C  0.41724276  0.11959407  0.35294675    -0.06100
C1769       C  0.42047681  0.12521152  0.38740659    -0.00200
C1770       C  0.40439093  0.15222989  0.40222403    -0.08700
C1771       C  0.40807521  0.15962051  0.43965494     0.61700
H1772       H  0.37431598  0.19403741  0.39305926     0.12400
H1773       H  0.42981691  0.09850350  0.34219613     0.12400
C1774       C  0.40029197  0.13065784  0.29458560     0.61900
F1775       F  0.39354634  0.18926498  0.44825015    -0.23200
F1776       F  0.44132770  0.16128349  0.44815918    -0.20600
F1777       F  0.39301363  0.13509644  0.45851352    -0.20200
F1778       F  0.38764094  0.15341036  0.27234236    -0.20300
F1779       F  0.38337309  0.10135282  0.29034505    -0.20600
F1780       F  0.43306508  0.12583171  0.28545627    -0.23300
C1781       C  0.37799829  0.24230585  0.22134311    -0.06100
C1782       C  0.37447921  0.25329803  0.25472662    -0.00200
C1783       C  0.38388586  0.28612410  0.26224438    -0.08800
C1784       C  0.38566450  0.30886692  0.23541776    -0.06100
C1785       C  0.38324471  0.29856479  0.20196047    -0.00200
C1786       C  0.38561604  0.26468963  0.19512193    -0.08700
C1787       C  0.39917463  0.25295040  0.16158917     0.61700
H1788       H  0.37513413  0.21635461  0.21604088     0.12400
H1789       H  0.38910242  0.33469297  0.24044799     0.12400
C1790       C  0.39497056  0.29774010  0.29678050     0.61900
F1791       F  0.40039865  0.21896182  0.16026493    -0.23200
F1792       F  0.43110884  0.26489874  0.15786495    -0.20600
F1793       F  0.38038532  0.26423964  0.13476362    -0.20200
F1794       F  0.39047617  0.27458562  0.32197321    -0.20300
F1795       F  0.37813145  0.32594297  0.30542247    -0.20600
F1796       F  0.42842755  0.30514055  0.29536450    -0.23300
C1797       C  0.27269218  0.38514259  0.18680961    -0.06100
C1798       C  0.30599273  0.38202380  0.19673798    -0.00200
C1799       C  0.31516743  0.39121431  0.22990893    -0.08800
C1800       C  0.28992953  0.39470250  0.25408879    -0.06100
C1801       C  0.25645248  0.39273271  0.24503116    -0.00200
C1802       C  0.24796662  0.39327203  0.21042097    -0.08700
C1803       C  0.21445495  0.40592966  0.19853012     0.61700
H1804       H  0.26626781  0.38131281  0.16056489     0.12400
H1805       H  0.29627030  0.39849372  0.28027864     0.12400
C1806       C  0.35048588  0.39845756  0.24081475     0.61900
F1807       F  0.21095166  0.40315384  0.16389296    -0.23200
F1808       F  0.21191670  0.43882333  0.20679893    -0.20600
F1809       F  0.18857948  0.38933725  0.21363902    -0.20200
F1810       F  0.35228250  0.43065445  0.25175635    -0.20300
F1811       F  0.37339708  0.39461563  0.21531305    -0.20600
F1812       F  0.35928545  0.37810471  0.26720575    -0.23300
C1813       C  0.30810031  0.26216664  0.14690253    -0.06100
C1814       C  0.30310649  0.29027562  0.12718346    -0.00200
C1815       C  0.27630582  0.29045577  0.10362128    -0.08800
C1816       C  0.25312214  0.26413111  0.10486402    -0.06100
C1817       C  0.25653338  0.23841664  0.12850550    -0.00200
C1818       C  0.28694018  0.23531187  0.14546814    -0.08700
C1819       C  0.29858730  0.20402658  0.16166972     0.61700
H1820       H  0.32866140  0.26094701  0.16418718     0.12400
H1821       H  0.23081698  0.26498587  0.08967019     0.12400
C1822       C  0.26984631  0.31935142  0.08015578     0.61900
F1823       F  0.33016274  0.19666399  0.15035979    -0.23200
F1824       F  0.27828786  0.17798463  0.15332405    -0.20600
F1825       F  0.29968398  0.20856792  0.19609114    -0.20200
F1826       F  0.29487214  0.32172888  0.05652356    -0.20300
F1827       F  0.26816179  0.34804700  0.09856086    -0.20600
F1828       F  0.24021557  0.31593191  0.06280572    -0.23300
C1829       C  0.42253772  0.37045370  0.09487272    -0.06100
C1830       C  0.38886404  0.37847376  0.10064685    -0.00200
C1831       C  0.37487259  0.40500614  0.08134992    -0.08800
C1832       C  0.39623520  0.42552133  0.06305112    -0.06100
C1833       C  0.43020982  0.41940842  0.06072518    -0.00200
C1834       C  0.44355208  0.39064273  0.07540079    -0.08700
C1835       C  0.47959722  0.38111987  0.07019467     0.61700
H1836       H  0.43277492  0.34821545  0.10546566     0.12400
H1837       H  0.38606731  0.44708618  0.05048579     0.12400
C1838       C  0.33831593  0.41428702  0.07871587     0.61900
F1839       F  0.48604886  0.34947461  0.08157827    -0.23200
F1840       F  0.49997494  0.40248308  0.08762857    -0.20600
F1841       F  0.48730304  0.38250999  0.03619021    -0.20200
F1842       F  0.31689556  0.39106592  0.09143709    -0.20300
F1843       F  0.32998088  0.41870926  0.04506488    -0.20600
F1844       F  0.33309597  0.44362605  0.09539962    -0.23300
loop_ 
_geom_bond_atom_site_label_1 
_geom_bond_atom_site_label_2 
_geom_bond_distance 
_geom_bond_site_symmetry_2 
_ccdc_geom_bond_type 
C1            C2   1.545       .  S
C1            C7   1.541       .  S
C1            C5   1.558       .  S
C1         C1830   1.536       .  S
C2            H9   1.085       .  S
C2            C3   1.359       .  D
C3            C4   1.532       .  S
C3         C1798   1.481       .  S
C4            C8   1.544       .  S
C4            C6   1.538       .  S
C4           H10   1.112       .  S
C5           H11   1.082       .  S
C5            C6   1.361       .  D
C6         C1785   1.483       .  S
C7           H12   1.082       .  S
C7            C8   1.364       .  D
C8         C1814   1.494       .  S
C13          C14   1.544       .  S
C13          C19   1.560       .  S
C13          C17   1.537       .  S
C13        C1766   1.538       .  S
C14          H21   1.084       .  S
C14          C15   1.364       .  D
C15          C16   1.547       .  S
C15        C1750   1.494       .  S
C16          C20   1.538       .  S
C16          C18   1.542       .  S
C16          H22   1.112       .  S
C17          H23   1.087       .  S
C17          C18   1.357       .  D
C18        C1782   1.485       .  S
C19          H24   1.081       .  S
C19          C20   1.363       .  D
C20        C1734   1.487       .  S
C25          C26   1.562       .  S
C25          C31   1.549       .  S
C25          C29   1.553       .  S
C25        C1718   1.554       .  S
C26          H33   1.082       .  S
C26          C27   1.362       .  D
C27          C28   1.541       .  S
C27        C1817   1.496       .  S
C28          C32   1.538       .  S
C28          C30   1.541       .  S
C28          H34   1.112       .  S
C29          H35   1.084       .  S
C29          C30   1.366       .  D
C30        C1753   1.494       .  S
C31          H36   1.086       .  S
C31          C32   1.363       .  D
C32        C1702   1.492       .  S
C37          C38   1.554       .  S
C37          C43   1.551       .  S
C37          C41   1.543       .  S
C37        C1686   1.542       .  S
C38          H45   1.084       .  S
C38          C39   1.358       .  D
C39          C40   1.532       .  S
C39        C1737   1.479       .  S
C40          C44   1.541       .  S
C40          C42   1.539       .  S
C40          H46   1.112       .  S
C41          H47   1.086       .  S
C41          C42   1.359       .  D
C42        C1801   1.485       .  S
C43          H48   1.077       .  S
C43          C44   1.370       .  D
C44        C1705   1.495       .  S
C49          C50   1.537       .  S
C49          C55   1.558       .  S
C49          C53   1.548       .  S
C49        C1673   1.542       .  S
C50          H57   1.086       .  S
C50          C51   1.359       .  D
C51          C52   1.543       .  S
C51        C1638   1.491       .  S
C52          C56   1.536       .  S
C52          C54   1.547       .  S
C52          H58   1.107       .  S
C53          H59   1.084       .  S
C53          C54   1.358       .  D
C54        C1622   1.492       .  S
C55          H60   1.080       .  S
C55          C56   1.372       .  D
C56        C1654   1.498       .  S
C61          C62   1.559       .  S
C61          C67   1.546       .  S
C61          C65   1.552       .  S
C61        C1609   1.545       .  S
C62          H69   1.084       .  S
C62          C63   1.363       .  D
C63          C64   1.540       .  S
C63        C1590   1.495       .  S
C64          C68   1.545       .  S
C64          C66   1.539       .  S
C64          H70   1.094       .  S
C65          H71   1.082       .  S
C65          C66   1.364       .  D
C66        C1657   1.499       .  S
C67          H72   1.086       .  S
C67          C68   1.363       .  D
C68        C1574   1.503       .  S
C73          C74   1.549       .  S
C73          C79   1.542       .  S
C73          C77   1.575       .  S
C73        C1558   1.546       .  S
C74          H81   1.086       .  S
C74          C75   1.360       .  D
C75          C76   1.526       .  S
C75        C1593   1.498       .  S
C76          C80   1.530       .  S
C76          C78   1.542       .  S
C76          H82   1.099       .  S
C77          H83   1.074       .  S
C77          C78   1.384       .  D
C78        C1542   1.517       .  S
C79          H84   1.087       .  S
C79          C80   1.352       .  D
C80        C1641   1.483       .  S
C85          C86   1.543       .  S
C85          C91   1.558       .  S
C85          C89   1.555       .  S
C85        C1526   1.544       .  S
C86          H93   1.086       .  S
C86          C87   1.357       .  D
C87          C88   1.529       .  S
C87        C1577   1.490       .  S
C88          C92   1.545       .  S
C88          C90   1.525       .  S
C88          H94   1.081       .  S
C89          H95   1.083       .  S
C89          C90   1.355       .  D
C90        C1625   1.492       .  S
C91          H96   1.081       .  S
C91          C92   1.380       .  D
C92        C1545   1.514       .  S
N97          N98   1.321       .  A
N97         N103   1.315       .  A
N97        Mn126   2.199       .  S
N98         C105   1.353       .  A
N99         N101   1.313       .  A
N99         N100   1.319       .  A
N99        Mn115   2.184       .  S
N100        C106   1.351       .  A
N101        N102   1.315       .  A
N101       Mn126   2.191       .  S
N102        C106   1.353       .  A
N103        N104   1.317       .  A
N103       Mn115   2.192       .  S
N104        C105   1.351       .  A
C105       C1529   1.476       .  S
C106       C1478   1.477       .  S
N107        N113   1.314       .  A
N107        N108   1.321       .  A
N107       Mn137   2.205       .  S
N108        C116   1.354       .  A
N109        N110   1.316       .  A
N109        N111   1.315       .  A
N109       Mn115   2.188   1_554  S
N110        C117   1.351       .  A
N111        N112   1.320       .  A
N111       Mn137   2.198       .  S
N112        C117   1.353       .  A
N113        N114   1.319       .  A
N113       Mn115   2.191   1_554  S
N114        C116   1.352       .  A
Mn115      Cl139   2.534       .  S
C116       C1510   1.482       .  S
C117       C1833   1.471       .  S
N118        N119   1.319       .  A
N118        N124   1.313       .  A
N118       Mn126   2.191       .  S
N119        C127   1.352       .  A
N120        N122   1.315       .  A
N120        N121   1.317       .  A
N120       Mn138   2.196       .  S
N121        C128   1.350       .  A
N122        N123   1.321       .  A
N122       Mn126   2.199       .  S
N123        C128   1.355       .  A
N124        N125   1.317       .  A
N124       Mn138   2.187       .  S
N125        C127   1.353       .  A
Mn126      Cl139   2.546       .  S
C127       C1446   1.479       .  S
C128       C1497   1.484       .  S
N129        N130   1.321       .  A
N129        N135   1.315       .  A
N129       Mn137   2.198       .  S
N130        C140   1.353       .  A
N131        N132   1.319       .  A
N131        N133   1.316       .  A
N131       Mn138   2.197   1_554  S
N132        C141   1.351       .  A
N133        N134   1.320       .  A
N133       Mn137   2.200       .  S
N134        C141   1.352       .  A
N135        N136   1.316       .  A
N135       Mn138   2.183   1_554  S
N136        C140   1.348       .  A
Mn137      Cl139   2.551   1_554  S
Mn138      Cl139   2.526       .  S
C140       C1430   1.470       .  S
C141       C1462   1.471       .  S
C142        C143   1.563       .  S
C142        C148   1.553       .  S
C142        C146   1.538       .  S
C142       C1513   1.547       .  S
C143        H150   1.076       .  S
C143        C144   1.369       .  D
C144        C145   1.535       .  S
C144       C1417   1.500       .  S
C145        C149   1.548       .  S
C145        C147   1.538       .  S
C145        H151   1.098       .  S
C146        H152   1.086       .  S
C146        C147   1.358       .  D
C147       C1382   1.485       .  S
C148        H153   1.086       .  S
C148        C149   1.361       .  D
C149       C1398   1.504       .  S
C154        C155   1.547       .  S
C154        C160   1.559       .  S
C154        C158   1.545       .  S
C154       C1366   1.548       .  S
C155        H162   1.085       .  S
C155        C156   1.363       .  D
C156        C157   1.551       .  S
C156       C1334   1.502       .  S
C157        C161   1.545       .  S
C157        C159   1.539       .  S
C157        H163   1.101       .  S
C158        H164   1.086       .  S
C158        C159   1.363       .  D
C159       C1353   1.497       .  S
C160        H165   1.083       .  S
C160        C161   1.365       .  D
C161       C1414   1.501       .  S
C166        C167   1.556       .  S
C166        C172   1.552       .  S
C166        C170   1.552       .  S
C166       C1318   1.545       .  S
C167        H174   1.084       .  S
C167        C168   1.359       .  D
C168        C169   1.530       .  S
C168       C1337   1.490       .  S
C169        C173   1.546       .  S
C169        C171   1.525       .  S
C169        H175   1.081       .  S
C170        H176   1.082       .  S
C170        C171   1.356       .  D
C171       C1401   1.492       .  S
C172        H177   1.082       .  S
C172        C173   1.381       .  D
C173       C1302   1.522       .  S
C178        C179   1.580       .  S
C178        C184   1.548       .  S
C178        C182   1.544       .  S
C178       C1286   1.545       .  S
C179        H186   1.076       .  S
C179        C180   1.381       .  D
C180        C181   1.535       .  S
C180       C1305   1.512       .  S
C181        C185   1.513       .  S
C181        C183   1.520       .  S
C181        H187   1.095       .  S
C182        H188   1.083       .  S
C182        C183   1.357       .  D
C183       C1385   1.483       .  S
C184        H189   1.086       .  S
C184        C185   1.355       .  D
C185       C1350   1.484       .  S
N190        N191   1.321       .  A
N190        N196   1.315       .  A
N190       Mn219   2.201       .  S
N191        C198   1.353       .  A
N192        N194   1.314       .  A
N192        N193   1.318       .  A
N192       Mn208   2.177   1_565  S
N193        C199   1.349       .  A
N194        N195   1.318       .  A
N194       Mn219   2.202   1_565  S
N195        C199   1.356       .  A
N196        N197   1.319       .  A
N196       Mn208   2.195       .  S
N197        C198   1.351       .  A
C198       C1670   1.471       .  S
C199       C1254   1.484       .  S
N200        N206   1.316       .  A
N200        N201   1.321       .  A
N200       Mn230   2.209   1_565  S
N201        C209   1.356       .  A
N202        N203   1.318       .  A
N202        N204   1.314       .  A
N202       Mn208   2.174       .  S
N203        C210   1.348       .  A
N204        N205   1.317       .  A
N204       Mn230   2.197       .  S
N205        C210   1.353       .  A
N206        N207   1.319       .  A
N206       Mn208   2.200   1_565  S
N207        C209   1.352       .  A
Mn208      Cl232   2.538       .  S
C209       C1289   1.488       .  S
C210       C1769   1.467       .  S
N211        N212   1.317       .  A
N211        N217   1.314       .  A
N211       Mn219   2.195   1_565  S
N212        C220   1.352       .  A
N213        N215   1.314       .  A
N213        N214   1.319       .  A
N213       Mn231   2.190       .  S
N214        C221   1.351       .  A
N215        N216   1.319       .  A
N215       Mn219   2.196       .  S
N216        C221   1.352       .  A
N217        N218   1.319       .  A
N217       Mn231   2.194   1_565  S
N218        C220   1.355       .  A
Mn219      Cl232   2.541       .  S
C220       C1222   1.487       .  S
C221       C1270   1.471       .  S
N222        N223   1.319       .  A
N222        N228   1.315       .  A
N222       Mn230   2.204       .  S
N223        C233   1.355       .  A
N224        N225   1.318   1_545  A
N224        N226   1.314       .  A
N224       Mn231   2.191       .  S
N225        C234   1.350       .  A
N226        N227   1.321   1_545  A
N226       Mn230   2.207       .  S
N227        C234   1.357       .  A
N228        N229   1.319       .  A
N228       Mn231   2.190       .  S
N229        C233   1.351       .  A
Mn230      Cl232   2.545       .  S
Mn231      Cl232   2.538       .  S
C233       C1206   1.479       .  S
C234       C1238   1.490       .  S
C235        C236   1.543       .  S
C235        C241   1.555       .  S
C235        C239   1.557       .  S
C235       C1494   1.544       .  S
C236        H243   1.086       .  S
C236        C237   1.352       .  D
C237        C238   1.530       .  S
C237       C1190   1.494       .  S
C238        C242   1.528       .  S
C238        C240   1.540       .  S
C238        H244   1.078       .  S
C239        H245   1.069       .  S
C239        C240   1.383       .  D
C240       C1158   1.512       .  S
C241        H246   1.085       .  S
C241        C242   1.360       .  D
C242       C1174   1.504       .  S
C247        C248   1.537       .  S
C247        C253   1.571       .  S
C247        C251   1.547       .  S
C247       C1142   1.544       .  S
C248        H255   1.086       .  S
C248        C249   1.359       .  D
C249        C250   1.537       .  S
C249       C1110   1.486       .  S
C250        C254   1.530       .  S
C250        C252   1.549       .  S
C250        H256   1.097       .  S
C251        H257   1.084       .  S
C251        C252   1.363       .  D
C252       C1193   1.504       .  S
C253        H258   1.082       .  S
C253        C254   1.369       .  D
C254       C1126   1.497       .  S
C259        C260   1.562       .  S
C259        C265   1.553       .  S
C259        C263   1.548       .  S
C259       C1273   1.541       .  S
C260        H267   1.084       .  S
C260        C261   1.356       .  D
C261        C262   1.516       .  S
C261       C1094   1.483       .  S
C262        C266   1.526       .  S
C262        C264   1.541       .  S
C262        H268   1.102       .  S
C263        H269   1.079       .  S
C263        C264   1.371       .  D
C264       C1161   1.502       .  S
C265        H270   1.082       .  S
C265        C266   1.363       .  D
C266       C1113   1.486       .  S
C271        C272   1.550       .  S
C271        C277   1.562       .  S
C271        C275   1.539       .  S
C271       C1078   1.543       .  S
C272        H279   1.085       .  S
C272        C273   1.363       .  D
C273        C274   1.547       .  S
C273       C1177   1.499       .  S
C274        C278   1.536       .  S
C274        C276   1.535       .  S
C274        H280   1.097       .  S
C275        H281   1.086       .  S
C275        C276   1.358       .  D
C276       C1097   1.489       .  S
C277        H282   1.082       .  S
C277        C278   1.370       .  D
C278       C1129   1.500       .  S
C283        C284   1.533       .  S
C283        C289   1.537       .  S
C283        C287   1.565       .  S
C283       C1481   1.530       .  S
C284        H291   1.084       .  S
C284        C285   1.353       .  D
C285        C286   1.540       .  S
C285       C1062   1.485       .  S
C286        C290   1.548       .  S
C286        C288   1.541       .  S
C286        H292   1.106       .  S
C287        H293   1.081       .  S
C287        C288   1.375       .  D
C288       C1049   1.500       .  S
C289        H294   1.086       .  S
C289        C290   1.355       .  D
C290       C1030   1.487       .  S
C295        C296   1.536       .  S
C295        C301   1.575       .  S
C295        C299   1.539       .  S
C295       C1257   1.529       .  S
C296        H303   1.087       .  S
C296        C297   1.352       .  D
C297        C298   1.533       .  S
C297       C1014   1.482       .  S
C298        C302   1.540       .  S
C298        C300   1.520       .  S
C298        H304   1.083       .  S
C299        H305   1.087       .  S
C299        C300   1.348       .  D
C300       C1065   1.478       .  S
C301        H306   1.078       .  S
C301        C302   1.389       .  D
C302        C998   1.521       .  S
C307        C308   1.576       .  S
C307        C313   1.544       .  S
C307        C311   1.540       .  S
C307        C985   1.545       .  S
C308        H315   1.071       .  S
C308        C309   1.384       .  D
C309        C310   1.546       .  S
C309       C1001   1.525       .  S
C310        C314   1.530       .  S
C310        C312   1.540       .  S
C310        H316   1.097       .  S
C311        H317   1.087       .  S
C311        C312   1.354       .  D
C312       C1033   1.492       .  S
C313        H318   1.086       .  S
C313        C314   1.357       .  D
C314        C966   1.500       .  S
C319        C320   1.552       .  S
C319        C325   1.561       .  S
C319        C323   1.541       .  S
C319        C950   1.537       .  S
C320        H327   1.078       .  S
C320        C321   1.365       .  D
C321        C322   1.536       .  S
C321       C1046   1.487       .  S
C322        C326   1.538       .  S
C322        C324   1.528       .  S
C322        H328   1.103       .  S
C323        H329   1.086       .  S
C323        C324   1.356       .  D
C324       C1017   1.479       .  S
C325        H330   1.083       .  S
C325        C326   1.364       .  D
C326        C969   1.501       .  S
C331        C332   1.555       .  S
C331        C337   1.559       .  S
C331        C335   1.548       .  S
C331       C1241   1.551       .  S
C332        H339   1.083       .  S
C332        C333   1.386       .  D
C333        C334   1.542       .  S
C333        C918   1.523       .  S
C334        C338   1.524       .  S
C334        C336   1.534       .  S
C334        H340   1.075       .  S
C335        H341   1.083       .  S
C335        C336   1.358       .  D
C336        C902   1.497       .  S
C337        H342   1.080       .  S
C337        C338   1.355       .  D
C338        C934   1.500       .  S
C343        C344   1.560       .  S
C343        C349   1.548       .  S
C343        C347   1.546       .  S
C343        C889   1.548       .  S
C344        H351   1.082       .  S
C344        C345   1.360       .  D
C345        C346   1.544       .  S
C345        C937   1.496       .  S
C346        C350   1.540       .  S
C346        C348   1.537       .  S
C346        H352   1.103       .  S
C347        H353   1.085       .  S
C347        C348   1.367       .  D
C348        C854   1.492       .  S
C349        H354   1.085       .  S
C349        C350   1.364       .  D
C350        C870   1.494       .  S
C355        C356   1.566       .  S
C355        C361   1.544       .  S
C355        C359   1.545       .  S
C355       C1465   1.540       .  S
C356        H363   1.084       .  S
C356        C357   1.365       .  D
C357        C358   1.530       .  S
C357        C857   1.493       .  S
C358        C362   1.535       .  S
C358        C360   1.546       .  S
C358        H364   1.090       .  S
C359        H365   1.086       .  S
C359        C360   1.361       .  D
C360        C905   1.505       .  S
C361        H366   1.083       .  S
C361        C362   1.361       .  D
C362        C838   1.486       .  S
C367        C368   1.560       .  S
C367        C373   1.549       .  S
C367        C371   1.555       .  S
C367        C822   1.552       .  S
C368        H375   1.083       .  S
C368        C369   1.361       .  D
C369        C370   1.526       .  S
C369        C841   1.486       .  S
C370        C374   1.519       .  S
C370        C372   1.545       .  S
C370        H376   1.109       .  S
C371        H377   1.078       .  S
C371        C372   1.372       .  D
C372        C921   1.503       .  S
C373        H378   1.086       .  S
C373        C374   1.360       .  D
C374        C873   1.485       .  S
C379        C380   1.544       .  S
C379        C385   1.551       .  S
C379        C383   1.558       .  S
C379       C1449   1.535       .  S
C380        H387   1.086       .  S
C380        C381   1.359       .  D
C381        C382   1.542       .  S
C381        C806   1.491       .  S
C382        C386   1.543       .  S
C382        C384   1.541       .  S
C382        H388   1.111       .  S
C383        H389   1.083       .  S
C383        C384   1.359       .  D
C384        C774   1.490       .  S
C385        H390   1.085       .  S
C385        C386   1.362       .  D
C386        C790   1.495       .  S
C391        C392   1.558       .  S
C391        C397   1.541       .  S
C391        C395   1.550       .  S
C391        C758   1.545       .  S
C392        H399   1.085       .  S
C392        C393   1.359       .  D
C393        C394   1.542       .  S
C393        C742   1.495       .  S
C394        C398   1.536       .  S
C394        C396   1.554       .  S
C394        H400   1.112       .  S
C395        H401   1.077       .  S
C395        C396   1.372       .  D
C396        C793   1.503       .  S
C397        H402   1.086       .  S
C397        C398   1.356       .  D
C398        C726   1.488       .  S
C403        C404   1.544       .  S
C403        C409   1.545       .  S
C403        C407   1.554       .  S
C403       C1225   1.545       .  S
C404        H411   1.081       .  S
C404        C405   1.364       .  D
C405        C406   1.542       .  S
C405        C729   1.485       .  S
C406        C410   1.534       .  S
C406        C408   1.547       .  S
C406        H412   1.112       .  S
C407        H413   1.078       .  S
C407        C408   1.360       .  D
C408        C777   1.495       .  S
C409        H414   1.086       .  S
C409        C410   1.359       .  D
C410        C710   1.490       .  S
C415        C416   1.553       .  S
C415        C421   1.546       .  S
C415        C419   1.562       .  S
C415        C694   1.556       .  S
C416        H423   1.086       .  S
C416        C417   1.366       .  D
C417        C418   1.538       .  S
C417        C745   1.497       .  S
C418        C422   1.550       .  S
C418        C420   1.539       .  S
C418        H424   1.112       .  S
C419        H425   1.080       .  S
C419        C420   1.362       .  D
C420        C713   1.492       .  S
C421        H426   1.082       .  S
C421        C422   1.365       .  D
C422        C809   1.504       .  S
N427        N428   1.322       .  A
N427        N433   1.315       .  A
N427       Mn456   2.213       .  S
N428        C435   1.356       .  A
N429        N431   1.317       .  A
N429        N430   1.322       .  A
N429       Mn445   2.211   1_654  S
N430        C436   1.353       .  A
N431        N432   1.322       .  A
N431       Mn456   2.209   1_655  S
N432        C436   1.352       .  A
N433        N434   1.320       .  A
N433       Mn445   2.205   1_554  S
N434        C435   1.353       .  A
C435       C1721   1.491       .  S
C436        C681   1.483       .  S
N437        N443   1.317       .  A
N437        N438   1.320       .  A
N437       Mn467   2.203   1_655  S
N438        C446   1.352       .  A
N439        N440   1.319       .  A
N439        N441   1.316       .  A
N439       Mn445   2.204       .  S
N440        C447   1.351       .  A
N441        N442   1.323       .  A
N441       Mn467   2.205       .  S
N442        C447   1.354       .  A
N443        N444   1.322       .  A
N443       Mn445   2.212   1_655  S
N444        C446   1.354       .  A
Mn445      Cl469   2.546       .  S
C446       C1081   1.482       .  S
C447       C1606   1.478       .  S
N448        N449   1.320       .  A
N448        N454   1.315       .  A
N448       Mn456   2.209   1_665  S
N449        C457   1.357       .  A
N450        N452   1.316       .  A
N450        N451   1.321       .  A
N450       Mn468   2.209   1_554  S
N451        C458   1.353       .  A
N452        N453   1.321       .  A
N452       Mn456   2.207   1_565  S
N453        C458   1.354       .  A
N454        N455   1.319       .  A
N454       Mn468   2.198   1_654  S
N455        C457   1.352       .  A
Mn456      Cl469   2.551   1_554  S
C457        C825   1.494       .  S
C458       C1369   1.486       .  S
N459        N460   1.319       .  A
N459        N465   1.316       .  A
N459       Mn467   2.198   1_565  S
N460        C470   1.351       .  A
N461        N462   1.323       .  A
N461        N463   1.316       .  A
N461       Mn468   2.214   1_655  S
N462        C471   1.357       .  A
N463        N464   1.320       .  A
N463       Mn467   2.207   1_665  S
N464        C471   1.353       .  A
N465        N466   1.320       .  A
N465       Mn468   2.197       .  S
N466        C470   1.351       .  A
Mn467      Cl469   2.549       .  S
Mn468      Cl469   2.550   1_565  S
C470        C953   1.472       .  S
C471        C697   1.493       .  S
C472        C473   1.562       .  S
C472        C478   1.551       .  S
C472        C476   1.539       .  S
C472       C1209   1.546       .  S
C473        H480   1.081       .  S
C473        C474   1.363       .  D
C474        C475   1.548       .  S
C474        C646   1.503       .  S
C475        C479   1.544       .  S
C475        C477   1.541       .  S
C475        H481   1.097       .  S
C476        H482   1.086       .  S
C476        C477   1.359       .  D
C477        C633   1.489       .  S
C478        H483   1.083       .  S
C478        C479   1.367       .  D
C479        C665   1.506       .  S
C484        C485   1.574       .  S
C484        C490   1.540       .  S
C484        C488   1.555       .  S
C484        C678   1.551       .  S
C485        H492   1.074       .  S
C485        C486   1.376       .  D
C486        C487   1.544       .  S
C486        C617   1.519       .  S
C487        C491   1.530       .  S
C487        C489   1.524       .  S
C487        H493   1.105       .  S
C488        H494   1.084       .  S
C488        C489   1.364       .  D
C489        C662   1.494       .  S
C490        H495   1.087       .  S
C490        C491   1.355       .  D
C491        C598   1.481       .  S
C496        C497   1.541       .  S
C496        C502   1.560       .  S
C496        C500   1.548       .  S
C496       C1433   1.533       .  S
C497        H504   1.086       .  S
C497        C498   1.361       .  D
C498        C499   1.533       .  S
C498        C601   1.482       .  S
C499        C503   1.530       .  S
C499        C501   1.537       .  S
C499        H505   1.103       .  S
C500        H506   1.082       .  S
C500        C501   1.362       .  D
C501        C630   1.483       .  S
C502        H507   1.085       .  S
C502        C503   1.362       .  D
C503        C582   1.490       .  S
C508        C509   1.559       .  S
C508        C514   1.541       .  S
C508        C512   1.553       .  S
C508        C569   1.553       .  S
C509        H516   1.079       .  S
C509        C510   1.388       .  D
C510        C511   1.554       .  S
C510        C614   1.536       .  S
C511        C515   1.526       .  S
C511        C513   1.530       .  S
C511        H517   1.079       .  S
C512        H518   1.085       .  S
C512        C513   1.357       .  D
C513        C585   1.489       .  S
C514        H519   1.086       .  S
C514        C515   1.355       .  D
C515        C649   1.490       .  S
N520        N521   1.321       .  A
N520        N526   1.316       .  A
N520       Mn549   2.199       .  S
N521        C528   1.351       .  A
N522        N524   1.316       .  A
N522        N523   1.321       .  A
N522       Mn538   2.206   1_655  S
N523        C529   1.353       .  A
N524        N525   1.321       .  A
N524       Mn549   2.208   1_655  S
N525        C529   1.353       .  A
N526        N527   1.322       .  A
N526       Mn538   2.216       .  S
N527        C528   1.354       .  A
C528       C1321   1.478       .  S
C529        C886   1.481       .  S
N530        N536   1.317       .  A
N530        N531   1.323       .  A
N530       Mn560   2.212   1_655  S
N531        C539   1.354       .  A
N532        N533   1.320       .  A
N532        N534   1.316       .  A
N532       Mn538   2.201       .  S
N533        C540   1.353       .  A
N534        N535   1.318       .  A
N534       Mn560   2.191       .  S
N535        C540   1.349       .  A
N536        N537   1.321       .  A
N536       Mn538   2.210   1_655  S
N537        C539   1.353       .  A
Mn538      Cl562   2.553       .  S
C539        C566   1.487       .  S
C540       C1689   1.471       .  S
N541        N542   1.319       .  A
N541        N547   1.316       .  A
N541       Mn549   2.199   1_655  S
N542        C550   1.351       .  A
N543        N545   1.316       .  A
N543        N544   1.320       .  A
N543       Mn561   2.213       .  S
N544        C551   1.356       .  A
N545        N546   1.322       .  A
N545       Mn549   2.208       .  S
N546        C551   1.354       .  A
N547        N548   1.322       .  A
N547       Mn561   2.203   1_655  S
N548        C550   1.352       .  A
Mn549      Cl562   2.545       .  S
C550        C761   1.475       .  S
C551        C982   1.491       .  S
N552        N553   1.320       .  A
N552        N558   1.316       .  A
N552       Mn560   2.211       .  S
N553        C563   1.356       .  A
N554        N555   1.322       .  A
N554        N556   1.317       .  A
N554       Mn561   2.211   1_655  S
N555        C564   1.353       .  A
N556        N557   1.320       .  A
N556       Mn560   2.199   1_655  S
N557        C564   1.351       .  A
N558        N559   1.323       .  A
N558       Mn561   2.208       .  S
N559        C563   1.354       .  A
Mn560      Cl562   2.544       .  S
Mn561      Cl562   2.553       .  S
C563       C1561   1.495       .  S
C564       C1145   1.474       .  S
C565        C566   1.402       .  A
C565        C570   1.416       .  A
C565        H572   1.083       .  S
C566        C567   1.410       .  A
C567        C574   1.523       .  S
C567        C568   1.405       .  A
C568        C569   1.419       .  A
C568        H573   1.076       .  S
C569        C570   1.436       .  A
C570        C571   1.526       .  S
C571        F575   1.385       .  S
C571        F576   1.381       .  S
C571        F577   1.380       .  S
C574        F578   1.382       .  S
C574        F579   1.384       .  S
C574        F580   1.385       .  S
C581        C582   1.404       .  A
C581        C586   1.412       .  A
C581        H588   1.083       .  S
C582        C583   1.414       .  A
C583        C590   1.510       .  S
C583        C584   1.406       .  A
C584        C585   1.402       .  A
C584        H589   1.083       .  S
C585        C586   1.412       .  A
C586        C587   1.511       .  S
C587        F591   1.384       .  S
C587        F592   1.383       .  S
C587        F593   1.377       .  S
C590        F594   1.384       .  S
C590        F595   1.378       .  S
C590        F596   1.384       .  S
C597        C598   1.406       .  A
C597        C602   1.413       .  A
C597        H604   1.084       .  S
C598        C599   1.404       .  A
C599        C606   1.504       .  S
C599        C600   1.386       .  A
C600        C601   1.395       .  A
C600        H605   1.074       .  S
C601        C602   1.423       .  A
C602        C603   1.516       .  S
C603        F607   1.383       .  S
C603        F608   1.379       .  S
C603        F609   1.383       .  S
C606        F610   1.381       .  S
C606        F611   1.384       .  S
C606        F612   1.379       .  S
C613        C614   1.421       .  A
C613        C618   1.427       .  A
C613        H620   1.079       .  S
C614        C615   1.430       .  A
C615        C622   1.514       .  S
C615        C616   1.396       .  A
C616        C617   1.397       .  A
C616        H621   1.083       .  S
C617        C618   1.426       .  A
C618        C619   1.518       .  S
C619        F623   1.385       .  S
C619        F624   1.382       .  S
C619        F625   1.379       .  S
C622        F626   1.375       .  S
C622        F627   1.379       .  S
C622        F628   1.385       .  S
C629        C630   1.396       .  A
C629        C634   1.396       .  A
C629        H636   1.081       .  S
C630        C631   1.419       .  A
C631        C638   1.519       .  S
C631        C632   1.415       .  A
C632        C633   1.406       .  A
C632        H637   1.081       .  S
C633        C634   1.410       .  A
C634        C635   1.503       .  S
C635        F639   1.380       .  S
C635        F640   1.378       .  S
C635        F641   1.384       .  S
C638        F642   1.377       .  S
C638        F643   1.382       .  S
C638        F644   1.384       .  S
C645        C646   1.404       .  A
C645        C650   1.413       .  A
C645        H652   1.081       .  S
C646        C647   1.412       .  A
C647        C654   1.510       .  S
C647        C648   1.407       .  A
C648        C649   1.402       .  A
C648        H653   1.084       .  S
C649        C650   1.416       .  A
C650        C651   1.513       .  S
C651        F655   1.382       .  S
C651        F656   1.382       .  S
C651        F657   1.383       .  S
C654        F658   1.380       .  S
C654        F659   1.383       .  S
C654        F660   1.383       .  S
C661        C662   1.403       .  A
C661        C666   1.421       .  A
C661        H668   1.080       .  S
C662        C663   1.408       .  A
C663        C670   1.509       .  S
C663        C664   1.400       .  A
C664        C665   1.397       .  A
C664        H669   1.072       .  S
C665        C666   1.426       .  A
C666        C667   1.515       .  S
C667        F671   1.385       .  S
C667        F672   1.380       .  S
C667        F673   1.379       .  S
C670        F674   1.381       .  S
C670        F675   1.379       .  S
C670        F676   1.382       .  S
C677        C678   1.415       .  A
C677        C682   1.408       .  A
C677        H684   1.072       .  S
C678        C679   1.441       .  A
C679        C686   1.529       .  S
C679        C680   1.412       .  A
C680        C681   1.395       .  A
C680        H685   1.085       .  S
C681        C682   1.411       .  A
C682        C683   1.521       .  S
C683        F687   1.385       .  S
C683        F688   1.382       .  S
C683        F689   1.384       .  S
C686        F690   1.386       .  S
C686        F691   1.377       .  S
C686        F692   1.382       .  S
C693        C694   1.418       .  A
C693        C698   1.410       .  A
C693        H700   1.071       .  S
C694        C695   1.438       .  A
C695        C702   1.524       .  S
C695        C696   1.410       .  A
C696        C697   1.399       .  A
C696        H701   1.085       .  S
C697        C698   1.415       .  A
C698        C699   1.523       .  S
C699        F703   1.384       .  S
C699        F704   1.383   1_565  S
C699        F705   1.384   1_565  S
C702        F706   1.383       .  S
C702        F707   1.369       .  S
C702        F708   1.384       .  S
C709        C710   1.399       .  A
C709        C714   1.407       .  A
C709        H716   1.078       .  S
C710        C711   1.414       .  A
C711        C718   1.509       .  S
C711        C712   1.411       .  A
C712        C713   1.402       .  A
C712        H717   1.083       .  S
C713        C714   1.413       .  A
C714        C715   1.512       .  S
C715        F719   1.374       .  S
C715        F720   1.381       .  S
C715        F721   1.383       .  S
C718        F722   1.374       .  S
C718        F723   1.382       .  S
C718        F724   1.384       .  S
C725        C726   1.399       .  A
C725        C730   1.406       .  A
C725        H732   1.078       .  S
C726        C727   1.414       .  A
C727        C734   1.509       .  S
C727        C728   1.408       .  A
C728        C729   1.400       .  A
C728        H733   1.083       .  S
C729        C730   1.412       .  A
C730        C731   1.511       .  S
C731        F735   1.383       .  S
C731        F736   1.374       .  S
C731        F737   1.379       .  S
C734        F738   1.384       .  S
C734        F739   1.374       .  S
C734        F740   1.382       .  S
C741        C742   1.401       .  A
C741        C746   1.411       .  A
C741        H748   1.083       .  S
C742        C743   1.413       .  A
C743        C750   1.512       .  S
C743        C744   1.409       .  A
C744        C745   1.399       .  A
C744        H749   1.077       .  S
C745        C746   1.415       .  A
C746        C747   1.506       .  S
C747        F751   1.384       .  S
C747        F752   1.374       .  S
C747        F753   1.382       .  S
C750        F754   1.381       .  S
C750        F755   1.383       .  S
C750        F756   1.373       .  S
C757        C758   1.415       .  A
C757        C762   1.400       .  A
C757        H764   1.077       .  S
C758        C759   1.436       .  A
C759        C766   1.524       .  S
C759        C760   1.413       .  A
C760        C761   1.398       .  A
C760        H765   1.084       .  S
C761        C762   1.410       .  A
C762        C763   1.523       .  S
C763        F767   1.385       .  S
C763        F768   1.382       .  S
C763        F769   1.384       .  S
C766        F770   1.380       .  S
C766        F771   1.380       .  S
C766        F772   1.386       .  S
C773        C774   1.405       .  A
C773        C778   1.420       .  A
C773        H780   1.082       .  S
C774        C775   1.400       .  A
C775        C782   1.500       .  S
C775        C776   1.392       .  A
C776        C777   1.397       .  A
C776        H781   1.073       .  S
C777        C778   1.429       .  A
C778        C779   1.521       .  S
C779        F783   1.384       .  S
C779        F784   1.382       .  S
C779        F785   1.378       .  S
C782        F786   1.382       .  S
C782        F787   1.377       .  S
C782        F788   1.383       .  S
C789        C790   1.408       .  A
C789        C794   1.424       .  A
C789        H796   1.082       .  S
C790        C791   1.403       .  A
C791        C798   1.503       .  S
C791        C792   1.388       .  A
C792        C793   1.396       .  A
C792        H797   1.072       .  S
C793        C794   1.428       .  A
C794        C795   1.516       .  S
C795        F799   1.385       .  S
C795        F800   1.381       .  S
C795        F801   1.378       .  S
C798        F802   1.380       .  S
C798        F803   1.381       .  S
C798        F804   1.382       .  S
C805        C806   1.405       .  A
C805        C810   1.422       .  A
C805        H812   1.082       .  S
C806        C807   1.399       .  A
C807        C814   1.500       .  S
C807        C808   1.390       .  A
C808        C809   1.398       .  A
C808        H813   1.069       .  S
C809        C810   1.430       .  A
C810        C811   1.516       .  S
C811        F815   1.385       .  S
C811        F816   1.381       .  S
C811        F817   1.374       .  S
C814        F818   1.381       .  S
C814        F819   1.380       .  S
C814        F820   1.381       .  S
C821        C822   1.417       .  A
C821        C826   1.408       .  A
C821        H828   1.074       .  S
C822        C823   1.436       .  A
C823        C830   1.528       .  S
C823        C824   1.409       .  A
C824        C825   1.401       .  A
C824        H829   1.082       .  S
C825        C826   1.417       .  A
C826        C827   1.524       .  S
C827        F831   1.385       .  S
C827        F832   1.383       .  S
C827        F833   1.384   1_554  S
C830        F834   1.386       .  S
C830        F835   1.377       .  S
C830        F836   1.379       .  S
C837        C838   1.401       .  A
C837        C842   1.404       .  A
C837        H844   1.081       .  S
C838        C839   1.418       .  A
C839        C846   1.512       .  S
C839        C840   1.408       .  A
C840        C841   1.402       .  A
C840        H845   1.085       .  S
C841        C842   1.411       .  A
C842        C843   1.508       .  S
C843        F847   1.380       .  S
C843        F848   1.384       .  S
C843        F849   1.384       .  S
C846        F850   1.381       .  S
C846        F851   1.383       .  S
C846        F852   1.382       .  S
C853        C854   1.393       .  A
C853        C858   1.391       .  A
C853        H860   1.074       .  S
C854        C855   1.420       .  A
C855        C862   1.513       .  S
C855        C856   1.419       .  A
C856        C857   1.406       .  A
C856        H861   1.081       .  S
C857        C858   1.409       .  A
C858        C859   1.503       .  S
C859        F863   1.384       .  S
C859        F864   1.376       .  S
C859        F865   1.379       .  S
C862        F866   1.381       .  S
C862        F867   1.379       .  S
C862        F868   1.384       .  S
C869        C870   1.406       .  A
C869        C874   1.412       .  A
C869        H876   1.083       .  S
C870        C871   1.411       .  A
C871        C878   1.506       .  S
C871        C872   1.400       .  A
C872        C873   1.401       .  A
C872        H877   1.084       .  S
C873        C874   1.418       .  A
C874        C875   1.515       .  S
C875        F879   1.383       .  S
C875        F880   1.381       .  S
C875        F881   1.382       .  S
C878        F882   1.382       .  S
C878        F883   1.382       .  S
C878        F884   1.384       .  S
C885        C886   1.399       .  A
C885        C890   1.409       .  A
C885        H892   1.085       .  S
C886        C887   1.410       .  A
C887        C894   1.520       .  S
C887        C888   1.407       .  A
C888        C889   1.416       .  A
C888        H893   1.076       .  S
C889        C890   1.434       .  A
C890        C891   1.524       .  S
C891        F895   1.383       .  S
C891        F896   1.376       .  S
C891        F897   1.384       .  S
C894        F898   1.382       .  S
C894        F899   1.384       .  S
C894        F900   1.385       .  S
C901        C902   1.398       .  A
C901        C906   1.413       .  A
C901        H908   1.084       .  S
C902        C903   1.419       .  A
C903        C910   1.513       .  S
C903        C904   1.409       .  A
C904        C905   1.401       .  A
C904        H909   1.079       .  S
C905        C906   1.432       .  A
C906        C907   1.519       .  S
C907        F911   1.384       .  S
C907        F912   1.375       .  S
C907        F913   1.383       .  S
C910        F914   1.374       .  S
C910        F915   1.381       .  S
C910        F916   1.384       .  S
C917        C918   1.416       .  A
C917        C922   1.421       .  A
C917        H924   1.079       .  S
C918        C919   1.423       .  A
C919        C926   1.511       .  S
C919        C920   1.389       .  A
C920        C921   1.393       .  A
C920        H925   1.080       .  S
C921        C922   1.422       .  A
C922        C923   1.513       .  S
C923        F927   1.384       .  S
C923        F928   1.381       .  S
C923        F929   1.380       .  S
C926        F930   1.387       .  S
C926        F931   1.370       .  S
C926        F932   1.380       .  S
C933        C934   1.408       .  A
C933        C938   1.415       .  A
C933        H940   1.083       .  S
C934        C935   1.424       .  A
C935        C942   1.519       .  S
C935        C936   1.408       .  A
C936        C937   1.394       .  A
C936        H941   1.075       .  S
C937        C938   1.414       .  A
C938        C939   1.520       .  S
C939        F943   1.384       .  S
C939        F944   1.383       .  S
C939        F945   1.380       .  S
C942        F946   1.382       .  S
C942        F947   1.376       .  S
C942        F948   1.385       .  S
C949        C950   1.412       .  A
C949        C954   1.401       .  A
C949        H956   1.079       .  S
C950        C951   1.435       .  A
C951        C958   1.524       .  S
C951        C952   1.408       .  A
C952        C953   1.396       .  A
C952        H957   1.084       .  S
C953        C954   1.412       .  A
C954        C955   1.521       .  S
C955        F959   1.385       .  S
C955        F960   1.382       .  S
C955        F961   1.383       .  S
C958        F962   1.381       .  S
C958        F963   1.381       .  S
C958        F964   1.385       .  S
C965        C966   1.405       .  A
C965        C970   1.420       .  A
C965        H972   1.083       .  S
C966        C967   1.421       .  A
C967        C974   1.513       .  S
C967        C968   1.404       .  A
C968        C969   1.397       .  A
C968        H973   1.080       .  S
C969        C970   1.424       .  A
C970        C971   1.520       .  S
C971        F975   1.385       .  S
C971        F976   1.381       .  S
C971        F977   1.381       .  S
C974        F978   1.377       .  S
C974        F979   1.381       .  S
C974        F980   1.384       .  S
C981        C982   1.397       .  A
C981        C986   1.405       .  A
C981        H988   1.085       .  S
C982        C983   1.416       .  A
C983        C990   1.520       .  S
C983        C984   1.413       .  A
C984        C985   1.415       .  A
C984        H989   1.074       .  S
C985        C986   1.439       .  A
C986        C987   1.531       .  S
C987        F991   1.385       .  S
C987        F992   1.374       .  S
C987        F993   1.383       .  S
C990        F994   1.382       .  S
C990        F995   1.384       .  S
C990        F996   1.385       .  S
C997        C998   1.418       .  A
C997       C1002   1.430       .  A
C997       H1004   1.078       .  S
C998        C999   1.419       .  A
C999       C1006   1.519       .  S
C999       C1000   1.384       .  A
C1000      C1001   1.402       .  A
C1000      H1005   1.078       .  S
C1001      C1002   1.433       .  A
C1002      C1003   1.516       .  S
C1003      F1007   1.384       .  S
C1003      F1008   1.381       .  S
C1003      F1009   1.383       .  S
C1006      F1010   1.380       .  S
C1006      F1011   1.383       .  S
C1006      F1012   1.381       .  S
C1013      C1014   1.409       .  A
C1013      C1018   1.413       .  A
C1013      H1020   1.083       .  S
C1014      C1015   1.409       .  A
C1015      C1022   1.509       .  S
C1015      C1016   1.395       .  A
C1016      C1017   1.396       .  A
C1016      H1021   1.077       .  S
C1017      C1018   1.412       .  A
C1018      C1019   1.514       .  S
C1019      F1023   1.384       .  S
C1019      F1024   1.383       .  S
C1019      F1025   1.379       .  S
C1022      F1026   1.383       .  S
C1022      F1027   1.381       .  S
C1022      F1028   1.381       .  S
C1029      C1030   1.397       .  A
C1029      C1034   1.400       .  A
C1029      H1036   1.081       .  S
C1030      C1031   1.421       .  A
C1031      C1038   1.522       .  S
C1031      C1032   1.417       .  A
C1032      C1033   1.405       .  A
C1032      H1037   1.083       .  S
C1033      C1034   1.418       .  A
C1034      C1035   1.515       .  S
C1035      F1039   1.379       .  S
C1035      F1040   1.379       .  S
C1035      F1041   1.383       .  S
C1038      F1042   1.381       .  S
C1038      F1043   1.382       .  S
C1038      F1044   1.384       .  S
C1045      C1046   1.388       .  A
C1045      C1050   1.384       .  A
C1045      H1052   1.074       .  S
C1046      C1047   1.419       .  A
C1047      C1054   1.515       .  S
C1047      C1048   1.420       .  A
C1048      C1049   1.411       .  A
C1048      H1053   1.081       .  S
C1049      C1050   1.416       .  A
C1050      C1051   1.501       .  S
C1051      F1055   1.385       .  S
C1051      F1056   1.371       .  S
C1051      F1057   1.370       .  S
C1054      F1058   1.381       .  S
C1054      F1059   1.378       .  S
C1054      F1060   1.384       .  S
C1061      C1062   1.398       .  A
C1061      C1066   1.401       .  A
C1061      H1068   1.081       .  S
C1062      C1063   1.422       .  A
C1063      C1070   1.519       .  S
C1063      C1064   1.408       .  A
C1064      C1065   1.397       .  A
C1064      H1069   1.080       .  S
C1065      C1066   1.416       .  A
C1066      C1067   1.516       .  S
C1067      F1071   1.383       .  S
C1067      F1072   1.379       .  S
C1067      F1073   1.379       .  S
C1070      F1074   1.380       .  S
C1070      F1075   1.379       .  S
C1070      F1076   1.385       .  S
C1077      C1078   1.413       .  A
C1077      C1082   1.408       .  A
C1077      H1084   1.078       .  S
C1078      C1079   1.434       .  A
C1079      C1086   1.524       .  S
C1079      C1080   1.408       .  A
C1080      C1081   1.397       .  A
C1080      H1085   1.085       .  S
C1081      C1082   1.415       .  A
C1082      C1083   1.520       .  S
C1083      F1087   1.385       .  S
C1083      F1088   1.383       .  S
C1083      F1089   1.382       .  S
C1086      F1090   1.377       .  S
C1086      F1091   1.383       .  S
C1086      F1092   1.385       .  S
C1093      C1094   1.401       .  A
C1093      C1098   1.400       .  A
C1093      H1100   1.084       .  S
C1094      C1095   1.412       .  A
C1095      C1102   1.513       .  S
C1095      C1096   1.412       .  A
C1096      C1097   1.406       .  A
C1096      H1101   1.082       .  S
C1097      C1098   1.412       .  A
C1098      C1099   1.509       .  S
C1099      F1103   1.384       .  S
C1099      F1104   1.382       .  S
C1099      F1105   1.382       .  S
C1102      F1106   1.379       .  S
C1102      F1107   1.383       .  S
C1102      F1108   1.384       .  S
C1109      C1110   1.402       .  A
C1109      C1114   1.410       .  A
C1109      H1116   1.083       .  S
C1110      C1111   1.420       .  A
C1111      C1118   1.515       .  S
C1111      C1112   1.405       .  A
C1112      C1113   1.397       .  A
C1112      H1117   1.081       .  S
C1113      C1114   1.418       .  A
C1114      C1115   1.516       .  S
C1115      F1119   1.384       .  S
C1115      F1120   1.377       .  S
C1115      F1121   1.382       .  S
C1118      F1122   1.382       .  S
C1118      F1123   1.378       .  S
C1118      F1124   1.383       .  S
C1125      C1126   1.405       .  A
C1125      C1130   1.422       .  A
C1125      H1132   1.080       .  S
C1126      C1127   1.406       .  A
C1127      C1134   1.501       .  S
C1127      C1128   1.391       .  A
C1128      C1129   1.396       .  A
C1128      H1133   1.075       .  S
C1129      C1130   1.425       .  A
C1130      C1131   1.515       .  S
C1131      F1135   1.384       .  S
C1131      F1136   1.380       .  S
C1131      F1137   1.381       .  S
C1134      F1138   1.379       .  S
C1134      F1139   1.377       .  S
C1134      F1140   1.383       .  S
C1141      C1142   1.414       .  A
C1141      C1146   1.407       .  A
C1141      H1148   1.076       .  S
C1142      C1143   1.438       .  A
C1143      C1150   1.526       .  S
C1143      C1144   1.407       .  A
C1144      C1145   1.393       .  A
C1144      H1149   1.085       .  S
C1145      C1146   1.410       .  A
C1146      C1147   1.520       .  S
C1147      F1151   1.385       .  S
C1147      F1152   1.383       .  S
C1147      F1153   1.383       .  S
C1150      F1154   1.376       .  S
C1150      F1155   1.385       .  S
C1150      F1156   1.383       .  S
C1157      C1158   1.414       .  A
C1157      C1162   1.420       .  A
C1157      H1164   1.079       .  S
C1158      C1159   1.412       .  A
C1159      C1166   1.513       .  S
C1159      C1160   1.384       .  A
C1160      C1161   1.400       .  A
C1160      H1165   1.082       .  S
C1161      C1162   1.427       .  A
C1162      C1163   1.516       .  S
C1163      F1167   1.385       .  S
C1163      F1168   1.382       .  S
C1163      F1169   1.382       .  S
C1166      F1170   1.380       .  S
C1166      F1171   1.373       .  S
C1166      F1172   1.383       .  S
C1173      C1174   1.408       .  A
C1173      C1178   1.416       .  A
C1173      H1180   1.083       .  S
C1174      C1175   1.427       .  A
C1175      C1182   1.520       .  S
C1175      C1176   1.411       .  A
C1176      C1177   1.397       .  A
C1176      H1181   1.077       .  S
C1177      C1178   1.413       .  A
C1178      C1179   1.518       .  S
C1179      F1183   1.384       .  S
C1179      F1184   1.380       .  S
C1179      F1185   1.383       .  S
C1182      F1186   1.375       .  S
C1182      F1187   1.382       .  S
C1182      F1188   1.385       .  S
C1189      C1190   1.397       .  A
C1189      C1194   1.413       .  A
C1189      H1196   1.084       .  S
C1190      C1191   1.415       .  A
C1191      C1198   1.518       .  S
C1191      C1192   1.409       .  A
C1192      C1193   1.404       .  A
C1192      H1197   1.082       .  S
C1193      C1194   1.435       .  A
C1194      C1195   1.522       .  S
C1195      F1199   1.383       .  S
C1195      F1200   1.374       .  S
C1195      F1201   1.384       .  S
C1198      F1202   1.382       .  S
C1198      F1203   1.373       .  S
C1198      F1204   1.385       .  S
C1205      C1206   1.395       .  A
C1205      C1210   1.402       .  A
C1205      H1212   1.085       .  S
C1206      C1207   1.412       .  A
C1207      C1214   1.521       .  S
C1207      C1208   1.408       .  A
C1208      C1209   1.417       .  A
C1208      H1213   1.074       .  S
C1209      C1210   1.436       .  A
C1210      C1211   1.523       .  S
C1211      F1215   1.383       .  S
C1211      F1216   1.370       .  S
C1211      F1217   1.384       .  S
C1214      F1218   1.382       .  S
C1214      F1219   1.384       .  S
C1214      F1220   1.385       .  S
C1221      C1222   1.402       .  A
C1221      C1226   1.409       .  A
C1221      H1228   1.082       .  S
C1222      C1223   1.415       .  A
C1223      C1230   1.524       .  S
C1223      C1224   1.402       .  A
C1224      C1225   1.415       .  A
C1224      H1229   1.072       .  S
C1225      C1226   1.436       .  A
C1226      C1227   1.531       .  S
C1227      F1231   1.385       .  S
C1227      F1232   1.380       .  S
C1227      F1233   1.377       .  S
C1230      F1234   1.384       .  S
C1230      F1235   1.383       .  S
C1230      F1236   1.385       .  S
C1237      C1238   1.401       .  A
C1237      C1242   1.405       .  A
C1237      H1244   1.085       .  S
C1238      C1239   1.420       .  A
C1239      C1246   1.523       .  S
C1239      C1240   1.408       .  A
C1240      C1241   1.413       .  A
C1240      H1245   1.076       .  S
C1241      C1242   1.430       .  A
C1242      C1243   1.519       .  S
C1243      F1247   1.385       .  S
C1243      F1248   1.383       .  S
C1243      F1249   1.373       .  S
C1246      F1250   1.384       .  S
C1246      F1251   1.383       .  S
C1246      F1252   1.385       .  S
C1253      C1254   1.394       .  A
C1253      C1258   1.398       .  A
C1253      H1260   1.085       .  S
C1254      C1255   1.416       .  A
C1255      C1262   1.515       .  S
C1255      C1256   1.407       .  A
C1256      C1257   1.409       .  A
C1256      H1261   1.073       .  S
C1257      C1258   1.440       .  A
C1258      C1259   1.534       .  S
C1259      F1263   1.385       .  S
C1259      F1264   1.373       .  S
C1259      F1265   1.384       .  S
C1262      F1266   1.385       .  S
C1262      F1267   1.382       .  S
C1262      F1268   1.382       .  S
C1269      C1270   1.398       .  A
C1269      C1274   1.406       .  A
C1269      H1276   1.085       .  S
C1270      C1271   1.413       .  A
C1271      C1278   1.521       .  S
C1271      C1272   1.402       .  A
C1272      C1273   1.411       .  A
C1272      H1277   1.079       .  S
C1273      C1274   1.428       .  A
C1274      C1275   1.518       .  S
C1275      F1279   1.385       .  S
C1275      F1280   1.383       .  S
C1275      F1281   1.378       .  S
C1278      F1282   1.384       .  S
C1278      F1283   1.382       .  S
C1278      F1284   1.385       .  S
C1285      C1286   1.411       .  A
C1285      C1290   1.407       .  A
C1285      H1292   1.074       .  S
C1286      C1287   1.442       .  A
C1287      C1294   1.535       .  S
C1287      C1288   1.409       .  A
C1288      C1289   1.397       .  A
C1288      H1293   1.082       .  S
C1289      C1290   1.414       .  A
C1290      C1291   1.515       .  S
C1291      F1295   1.385       .  S
C1291      F1296   1.381       .  S
C1291      F1297   1.384       .  S
C1294      F1298   1.377       .  S
C1294      F1299   1.381       .  S
C1294      F1300   1.385       .  S
C1301      C1302   1.420       .  A
C1301      C1306   1.426       .  A
C1301      H1308   1.077       .  S
C1302      C1303   1.416       .  A
C1303      C1310   1.516       .  S
C1303      C1304   1.386       .  A
C1304      C1305   1.401       .  A
C1304      H1309   1.079       .  S
C1305      C1306   1.424       .  A
C1306      C1307   1.515       .  S
C1307      F1311   1.384       .  S
C1307      F1312   1.381       .  S
C1307      F1313   1.382       .  S
C1310      F1314   1.372       .  S
C1310      F1315   1.374       .  S
C1310      F1316   1.378       .  S
C1317      C1318   1.412       .  A
C1317      C1322   1.408       .  A
C1317      H1324   1.080       .  S
C1318      C1319   1.429       .  A
C1319      C1326   1.520       .  S
C1319      C1320   1.407       .  A
C1320      C1321   1.398       .  A
C1320      H1325   1.085       .  S
C1321      C1322   1.415       .  A
C1322      C1323   1.519       .  S
C1323      F1327   1.385       .  S
C1323      F1328   1.382       .  S
C1323      F1329   1.383       .  S
C1326      F1330   1.380       .  S
C1326      F1331   1.383       .  S
C1326      F1332   1.384       .  S
C1333      C1334   1.406       .  A
C1333      C1338   1.414       .  A
C1333      H1340   1.082       .  S
C1334      C1335   1.421       .  A
C1335      C1342   1.510       .  S
C1335      C1336   1.408       .  A
C1336      C1337   1.401       .  A
C1336      H1341   1.085       .  S
C1337      C1338   1.411       .  A
C1338      C1339   1.514       .  S
C1339      F1343   1.384       .  S
C1339      F1344   1.383       .  S
C1339      F1345   1.380       .  S
C1342      F1346   1.378       .  S
C1342      F1347   1.382       .  S
C1342      F1348   1.383       .  S
C1349      C1350   1.400       .  A
C1349      C1354   1.410       .  A
C1349      H1356   1.084       .  S
C1350      C1351   1.417       .  A
C1351      C1358   1.512       .  S
C1351      C1352   1.406       .  A
C1352      C1353   1.398       .  A
C1352      H1357   1.076       .  S
C1353      C1354   1.418       .  A
C1354      C1355   1.505       .  S
C1355      F1359   1.385       .  S
C1355      F1360   1.382       .  S
C1355      F1361   1.371       .  S
C1358      F1362   1.381       .  S
C1358      F1363   1.381       .  S
C1358      F1364   1.384       .  S
C1365      C1366   1.415       .  A
C1365      C1370   1.409       .  A
C1365      H1372   1.077       .  S
C1366      C1367   1.434       .  A
C1367      C1374   1.524       .  S
C1367      C1368   1.407       .  A
C1368      C1369   1.399       .  A
C1368      H1373   1.085       .  S
C1369      C1370   1.414       .  A
C1370      C1371   1.520       .  S
C1371      F1375   1.385       .  S
C1371      F1376   1.383       .  S
C1371      F1377   1.382       .  S
C1374      F1378   1.385       .  S
C1374      F1379   1.374       .  S
C1374      F1380   1.383       .  S
C1381      C1382   1.399       .  A
C1381      C1386   1.408       .  A
C1381      H1388   1.084       .  S
C1382      C1383   1.416       .  A
C1383      C1390   1.509       .  S
C1383      C1384   1.404       .  A
C1384      C1385   1.399       .  A
C1384      H1389   1.085       .  S
C1385      C1386   1.425       .  A
C1386      C1387   1.519       .  S
C1387      F1391   1.382       .  S
C1387      F1392   1.376       .  S
C1387      F1393   1.383       .  S
C1390      F1394   1.376       .  S
C1390      F1395   1.380       .  S
C1390      F1396   1.384       .  S
C1397      C1398   1.405       .  A
C1397      C1402   1.409       .  A
C1397      H1404   1.082       .  S
C1398      C1399   1.434       .  A
C1399      C1406   1.519       .  S
C1399      C1400   1.413       .  A
C1400      C1401   1.397       .  A
C1400      H1405   1.084       .  S
C1401      C1402   1.412       .  A
C1402      C1403   1.516       .  S
C1403      F1407   1.383       .  S
C1403      F1408   1.383       .  S
C1403      F1409   1.373       .  S
C1406      F1410   1.375       .  S
C1406      F1411   1.384       .  S
C1406      F1412   1.383       .  S
C1413      C1414   1.395       .  A
C1413      C1418   1.392       .  A
C1413      H1420   1.076       .  S
C1414      C1415   1.435       .  A
C1415      C1422   1.520       .  S
C1415      C1416   1.422       .  A
C1416      C1417   1.404       .  A
C1416      H1421   1.083       .  S
C1417      C1418   1.403       .  A
C1418      C1419   1.495       .  S
C1419      F1423   1.377       .  S
C1419      F1424   1.378       .  S
C1419      F1425   1.383       .  S
C1422      F1426   1.383       .  S
C1422      F1427   1.377       .  S
C1422      F1428   1.382       .  S
C1429      C1430   1.397       .  A
C1429      C1434   1.404       .  A
C1429      H1436   1.085       .  S
C1430      C1431   1.415       .  A
C1431      C1438   1.521       .  S
C1431      C1432   1.401       .  A
C1432      C1433   1.408       .  A
C1432      H1437   1.080       .  S
C1433      C1434   1.430       .  A
C1434      C1435   1.520       .  S
C1435      F1439   1.385       .  S
C1435      F1440   1.382       .  S
C1435      F1441   1.378       .  S
C1438      F1442   1.383       .  S
C1438      F1443   1.383       .  S
C1438      F1444   1.385       .  S
C1445      C1446   1.400       .  A
C1445      C1450   1.401       .  A
C1445      H1452   1.085       .  S
C1446      C1447   1.413       .  A
C1447      C1454   1.522       .  S
C1447      C1448   1.405       .  A
C1448      C1449   1.414       .  A
C1448      H1453   1.075       .  S
C1449      C1450   1.431       .  A
C1450      C1451   1.526       .  S
C1451      F1455   1.385       .  S
C1451      F1456   1.376       .  S
C1451      F1457   1.383       .  S
C1454      F1458   1.383       .  S
C1454      F1459   1.382       .  S
C1454      F1460   1.385       .  S
C1461      C1462   1.394       .  A
C1461      C1466   1.407       .  A
C1461      H1468   1.085       .  S
C1462      C1463   1.409       .  A
C1463      C1470   1.520       .  S
C1463      C1464   1.404       .  A
C1464      C1465   1.414       .  A
C1464      H1469   1.077       .  S
C1465      C1466   1.436       .  A
C1466      C1467   1.525       .  S
C1467      F1471   1.385       .  S
C1467      F1472   1.382       .  S
C1467      F1473   1.378       .  S
C1470      F1474   1.383       .  S
C1470      F1475   1.382       .  S
C1470      F1476   1.385       .  S
C1477      C1478   1.394       .  A
C1477      C1482   1.395       .  A
C1477      H1484   1.085       .  S
C1478      C1479   1.413       .  A
C1479      C1486   1.521       .  S
C1479      C1480   1.409       .  A
C1480      C1481   1.415       .  A
C1480      H1485   1.073       .  S
C1481      C1482   1.438       .  A
C1482      C1483   1.535       .  S
C1483      F1487   1.384       .  S
C1483      F1488   1.374       .  S
C1483      F1489   1.384       .  S
C1486      F1490   1.384       .  S
C1486      F1491   1.382       .  S
C1486      F1492   1.385       .  S
C1493      C1494   1.413       .  A
C1493      C1498   1.400       .  A
C1493      H1500   1.082       .  S
C1494      C1495   1.432       .  A
C1495      C1502   1.519       .  S
C1495      C1496   1.412       .  A
C1496      C1497   1.402       .  A
C1496      H1501   1.084       .  S
C1497      C1498   1.416       .  A
C1498      C1499   1.523       .  S
C1499      F1503   1.385       .  S
C1499      F1504   1.382       .  S
C1499      F1505   1.384       .  S
C1502      F1506   1.383       .  S
C1502      F1507   1.383       .  S
C1502      F1508   1.386       .  S
C1509      C1510   1.401       .  A
C1509      C1514   1.409       .  A
C1509      H1516   1.084       .  S
C1510      C1511   1.413       .  A
C1511      C1518   1.521       .  S
C1511      C1512   1.405       .  A
C1512      C1513   1.416       .  A
C1512      H1517   1.082       .  S
C1513      C1514   1.429       .  A
C1514      C1515   1.519       .  S
C1515      F1519   1.386       .  S
C1515      F1520   1.382       .  S
C1515      F1521   1.383       .  S
C1518      F1522   1.383       .  S
C1518      F1523   1.384       .  S
C1518      F1524   1.385       .  S
C1525      C1526   1.420       .  A
C1525      C1530   1.405       .  A
C1525      H1532   1.075       .  S
C1526      C1527   1.435       .  A
C1527      C1534   1.528       .  S
C1527      C1528   1.407       .  A
C1528      C1529   1.398       .  A
C1528      H1533   1.084       .  S
C1529      C1530   1.407       .  A
C1530      C1531   1.522       .  S
C1531      F1535   1.385       .  S
C1531      F1536   1.383       .  S
C1531      F1537   1.382       .  S
C1534      F1538   1.386       .  S
C1534      F1539   1.378       .  S
C1534      F1540   1.382       .  S
C1541      C1542   1.403       .  A
C1541      C1546   1.383       .  A
C1541      H1548   1.076       .  S
C1542      C1543   1.429       .  A
C1543      C1550   1.514       .  S
C1543      C1544   1.427       .  A
C1544      C1545   1.415       .  A
C1544      H1549   1.082       .  S
C1545      C1546   1.412       .  A
C1546      C1547   1.514       .  S
C1547      F1551   1.385       .  S
C1547      F1552   1.374       .  S
C1547      F1553   1.374       .  S
C1550      F1554   1.383       .  S
C1550      F1555   1.382       .  S
C1550      F1556   1.385       .  S
C1557      C1558   1.415       .  A
C1557      C1562   1.415       .  A
C1557      H1564   1.073       .  S
C1558      C1559   1.441       .  A
C1559      C1566   1.533       .  S
C1559      C1560   1.405       .  A
C1560      C1561   1.398       .  A
C1560      H1565   1.085       .  S
C1561      C1562   1.416       .  A
C1562      C1563   1.519       .  S
C1563      F1567   1.385       .  S
C1563      F1568   1.382       .  S
C1563      F1569   1.384       .  S
C1566      F1570   1.384       .  S
C1566      F1571   1.374       .  S
C1566      F1572   1.384       .  S
C1573      C1574   1.408       .  A
C1573      C1578   1.416       .  A
C1573      H1580   1.080       .  S
C1574      C1575   1.417       .  A
C1575      C1582   1.508       .  S
C1575      C1576   1.404       .  A
C1576      C1577   1.400       .  A
C1576      H1581   1.082       .  S
C1577      C1578   1.410       .  A
C1578      C1579   1.513       .  S
C1579      F1583   1.384       .  S
C1579      F1584   1.383       .  S
C1579      F1585   1.383       .  S
C1582      F1586   1.381       .  S
C1582      F1587   1.378       .  S
C1582      F1588   1.385       .  S
C1589      C1590   1.395       .  A
C1589      C1594   1.395       .  A
C1589      H1596   1.076       .  S
C1590      C1591   1.420       .  A
C1591      C1598   1.515       .  S
C1591      C1592   1.419       .  A
C1592      C1593   1.409       .  A
C1592      H1597   1.083       .  S
C1593      C1594   1.414       .  A
C1594      C1595   1.508       .  S
C1595      F1599   1.384       .  S
C1595      F1600   1.382       .  S
C1595      F1601   1.380       .  S
C1598      F1602   1.375       .  S
C1598      F1603   1.382       .  S
C1598      F1604   1.385       .  S
C1605      C1606   1.398       .  A
C1605      C1610   1.411       .  A
C1605      H1612   1.085       .  S
C1606      C1607   1.412       .  A
C1607      C1614   1.520       .  S
C1607      C1608   1.405       .  A
C1608      C1609   1.413       .  A
C1608      H1613   1.079       .  S
C1609      C1610   1.434       .  A
C1610      C1611   1.523       .  S
C1611      F1615   1.385       .  S
C1611      F1616   1.379       .  S
C1611      F1617   1.382       .  S
C1614      F1618   1.382       .  S
C1614      F1619   1.383       .  S
C1614      F1620   1.384       .  S
C1621      C1622   1.399       .  A
C1621      C1626   1.408       .  A
C1621      H1628   1.080       .  S
C1622      C1623   1.420       .  A
C1623      C1630   1.521       .  S
C1623      C1624   1.412       .  A
C1624      C1625   1.404       .  A
C1624      H1629   1.083       .  S
C1625      C1626   1.422       .  A
C1626      C1627   1.519       .  S
C1627      F1631   1.385       .  S
C1627      F1632   1.381       .  S
C1627      F1633   1.375       .  S
C1630      F1634   1.380       .  S
C1630      F1635   1.384       .  S
C1630      F1636   1.382       .  S
C1637      C1638   1.402       .  A
C1637      C1642   1.403       .  A
C1637      H1644   1.081       .  S
C1638      C1639   1.428       .  A
C1639      C1646   1.516       .  S
C1639      C1640   1.407       .  A
C1640      C1641   1.394       .  A
C1640      H1645   1.083       .  S
C1641      C1642   1.414       .  A
C1642      C1643   1.517       .  S
C1643      F1647   1.382       .  S
C1643      F1648   1.381       .  S
C1643      F1649   1.383       .  S
C1646      F1650   1.372       .  S
C1646      F1651   1.383       .  S
C1646      F1652   1.383       .  S
C1653      C1654   1.397       .  A
C1653      C1658   1.397       .  A
C1653      H1660   1.077       .  S
C1654      C1655   1.420       .  A
C1655      C1662   1.510       .  S
C1655      C1656   1.419       .  A
C1656      C1657   1.406       .  A
C1656      H1661   1.083       .  S
C1657      C1658   1.410       .  A
C1658      C1659   1.504       .  S
C1659      F1663   1.384       .  S
C1659      F1664   1.379       .  S
C1659      F1665   1.377       .  S
C1662      F1666   1.381       .  S
C1662      F1667   1.376       .  S
C1662      F1668   1.384       .  S
C1669      C1670   1.398       .  A
C1669      C1674   1.407       .  A
C1669      H1676   1.085       .  S
C1670      C1671   1.407       .  A
C1671      C1678   1.519       .  S
C1671      C1672   1.404       .  A
C1672      C1673   1.417       .  A
C1672      H1677   1.081       .  S
C1673      C1674   1.431       .  A
C1674      C1675   1.520       .  S
C1675      F1679   1.386       .  S
C1675      F1680   1.377       .  S
C1675      F1681   1.382       .  S
C1678      F1682   1.384       .  S
C1678      F1683   1.382       .  S
C1678      F1684   1.385       .  S
C1685      C1686   1.416       .  A
C1685      C1690   1.403       .  A
C1685      H1692   1.077       .  S
C1686      C1687   1.434       .  A
C1687      C1694   1.523       .  S
C1687      C1688   1.405       .  A
C1688      C1689   1.397       .  A
C1688      H1693   1.085       .  S
C1689      C1690   1.408       .  A
C1690      C1691   1.521       .  S
C1691      F1695   1.384       .  S
C1691      F1696   1.382       .  S
C1691      F1697   1.383       .  S
C1694      F1698   1.375       .  S
C1694      F1699   1.385       .  S
C1694      F1700   1.383       .  S
C1701      C1702   1.406       .  A
C1701      C1706   1.422       .  A
C1701      H1708   1.081       .  S
C1702      C1703   1.403       .  A
C1703      C1710   1.502       .  S
C1703      C1704   1.388       .  A
C1704      C1705   1.396       .  A
C1704      H1709   1.076       .  S
C1705      C1706   1.424       .  A
C1706      C1707   1.518       .  S
C1707      F1711   1.385       .  S
C1707      F1712   1.381       .  S
C1707      F1713   1.382       .  S
C1710      F1714   1.383       .  S
C1710      F1715   1.380       .  S
C1710      F1716   1.378       .  S
C1717      C1718   1.417       .  A
C1717      C1722   1.409       .  A
C1717      H1724   1.074       .  S
C1718      C1719   1.436       .  A
C1719      C1726   1.526       .  S
C1719      C1720   1.411       .  A
C1720      C1721   1.401       .  A
C1720      H1725   1.084       .  S
C1721      C1722   1.415       .  A
C1722      C1723   1.522       .  S
C1723      F1727   1.385       .  S
C1723      F1728   1.382       .  S
C1723      F1729   1.384       .  S
C1726      F1730   1.376       .  S
C1726      F1731   1.382       .  S
C1726      F1732   1.385       .  S
C1733      C1734   1.399       .  A
C1733      C1738   1.403       .  A
C1733      H1740   1.076       .  S
C1734      C1735   1.418       .  A
C1735      C1742   1.515       .  S
C1735      C1736   1.407       .  A
C1736      C1737   1.401       .  A
C1736      H1741   1.082       .  S
C1737      C1738   1.409       .  A
C1738      C1739   1.512       .  S
C1739      F1743   1.383       .  S
C1739      F1744   1.382       .  S
C1739      F1745   1.372       .  S
C1742      F1746   1.383       .  S
C1742      F1747   1.381       .  S
C1742      F1748   1.380       .  S
C1749      C1750   1.394       .  A
C1749      C1754   1.395       .  A
C1749      H1756   1.075       .  S
C1750      C1751   1.424       .  A
C1751      C1758   1.513       .  S
C1751      C1752   1.420       .  A
C1752      C1753   1.403       .  A
C1752      H1757   1.082       .  S
C1753      C1754   1.405       .  A
C1754      C1755   1.504       .  S
C1755      F1759   1.383       .  S
C1755      F1760   1.380       .  S
C1755      F1761   1.379       .  S
C1758      F1762   1.380       .  S
C1758      F1763   1.381       .  S
C1758      F1764   1.384       .  S
C1765      C1766   1.418       .  A
C1765      C1770   1.405       .  A
C1765      H1772   1.071       .  S
C1766      C1767   1.437       .  A
C1767      C1774   1.527       .  S
C1767      C1768   1.399       .  A
C1768      C1769   1.391       .  A
C1768      H1773   1.086       .  S
C1769      C1770   1.408       .  A
C1770      C1771   1.522       .  S
C1771      F1775   1.385       .  S
C1771      F1776   1.383       .  S
C1771      F1777   1.382       .  S
C1774      F1778   1.371       .  S
C1774      F1779   1.383       .  S
C1774      F1780   1.385       .  S
C1781      C1782   1.406       .  A
C1781      C1786   1.410       .  A
C1781      H1788   1.083       .  S
C1782      C1783   1.420       .  A
C1783      C1790   1.516       .  S
C1783      C1784   1.406       .  A
C1784      C1785   1.396       .  A
C1784      H1789   1.078       .  S
C1785      C1786   1.408       .  A
C1786      C1787   1.517       .  S
C1787      F1791   1.384       .  S
C1787      F1792   1.383       .  S
C1787      F1793   1.380       .  S
C1790      F1794   1.379       .  S
C1790      F1795   1.378       .  S
C1790      F1796   1.383       .  S
C1797      C1798   1.404       .  A
C1797      C1802   1.409       .  A
C1797      H1804   1.083       .  S
C1798      C1799   1.417       .  A
C1799      C1806   1.516       .  S
C1799      C1800   1.407       .  A
C1800      C1801   1.398       .  A
C1800      H1805   1.080       .  S
C1801      C1802   1.412       .  A
C1802      C1803   1.519       .  S
C1803      F1807   1.384       .  S
C1803      F1808   1.382       .  S
C1803      F1809   1.377       .  S
C1806      F1810   1.383       .  S
C1806      F1811   1.380       .  S
C1806      F1812   1.375       .  S
C1813      C1814   1.394       .  A
C1813      C1818   1.386       .  A
C1813      H1820   1.075       .  S
C1814      C1815   1.426       .  A
C1815      C1822   1.515       .  S
C1815      C1816   1.421       .  A
C1816      C1817   1.405       .  A
C1816      H1821   1.082       .  S
C1817      C1818   1.402       .  A
C1818      C1819   1.496       .  S
C1819      F1823   1.384       .  S
C1819      F1824   1.379       .  S
C1819      F1825   1.378       .  S
C1822      F1826   1.380       .  S
C1822      F1827   1.381       .  S
C1822      F1828   1.384       .  S
C1829      C1830   1.416       .  A
C1829      C1834   1.407       .  A
C1829      H1836   1.076       .  S
C1830      C1831   1.433       .  A
C1831      C1838   1.525       .  S
C1831      C1832   1.398       .  A
C1832      C1833   1.396       .  A
C1832      H1837   1.085       .  S
C1833      C1834   1.409       .  A
C1834      C1835   1.519       .  S
C1835      F1839   1.385       .  S
C1835      F1840   1.382       .  S
C1835      F1841   1.384       .  S
C1838      F1842   1.373       .  S
C1838      F1843   1.385       .  S
C1838      F1844   1.383       .  S
