geometry optimzed in LAMMPS
_audit_creation_date              2020-11-30 
_audit_creation_method            'lammps2cif' 
_symmetry_space_group_name_H-M    'P1' 
_symmetry_Int_Tables_number       1 
_symmetry_cell_setting            triclinic 
loop_ 
_symmetry_equiv_pos_as_xyz 
  x,y,z 
_cell_length_a                    37.2498225 
_cell_length_b                    33.846287190168226 
_cell_length_c                    26.32751495591569 
_cell_angle_alpha                 82.80667688449758 
_cell_angle_beta                  74.61144635251084 
_cell_angle_gamma                 86.11161032336695 
loop_ 
_atom_site_label 
_atom_site_type_symbol 
_atom_site_fract_x 
_atom_site_fract_y 
_atom_site_fract_z 
_atom_site_charge 
N1          N  0.05606735  0.48349823  0.01266681    -0.35800
N2          N  0.50685560  0.05029441  0.98738669    -0.56400
N3          N  0.45013931  0.99433977  0.99241187    -0.35800
N4          N  0.00038750  0.42798348  0.01309478    -0.56400
C5          C  0.07986077  0.01373506  0.00204241     0.27800
C6          C  0.07659907  0.44882603  0.01308674     0.27800
C7          C  0.43526437  0.02815434  0.97175971     0.27800
C8          C  0.43282474  0.46339864  0.98250539     0.27800
C9          C  0.03414836  0.07103802  0.99583498     0.36400
C10         C  0.47781477  0.07649764  0.98620806     0.36400
C11         C  0.02483333  0.40212239  0.03073574     0.36400
C12         C  0.46874501  0.40825441  0.02097676     0.36400
C13         C  0.11588402  0.99795195  0.99707752    -0.21100
C14         C  0.11387444  0.45715569  0.00308616    -0.21100
C15         C  0.40799801  0.01872383  0.94875812    -0.21100
C16         C  0.40669816  0.47779993  0.95505813    -0.21100
C17         C  0.02272349  0.11084480  0.99810559    -0.22100
C18         C  0.48697754  0.11415761  0.99272001    -0.22100
C19         C  0.00868917  0.36573507  0.04998541    -0.22100
C20         C  0.47299933  0.36971277  0.04425991    -0.22100
C21         C  0.06964183  0.05503219  0.00024034    -0.17500
C22         C  0.06250539  0.40989979  0.02538027    -0.17500
C23         C  0.43805542  0.42282863  0.00109338    -0.17500
C24         C  0.44378973  0.06732602  0.97669082    -0.17500
H25         H  0.14119749  0.01389108  0.99036281     0.15400
H26         H  0.13719666  0.43605580  0.00164891     0.15400
H27         H  0.39068988  0.03924254  0.92975581     0.15400
H28         H  0.38801254  0.46066598  0.94198006     0.15400
H29         H  0.03837958  0.13515051  0.00325287     0.13700
H30         H  0.46990261  0.14134041  0.99291449     0.13700
H31         H  0.02151877  0.33895642  0.06562089     0.13700
H32         H  0.45293969  0.34644076  0.05427775     0.13700
H33         H  0.02727802  0.48660088  0.02468688     0.27000
H34         H  0.46754071  0.99278955  0.01764202     0.27000
N35         N  0.44270295  0.01588018  0.49722481    -0.35800
N36         N  0.49730942  0.07339515  0.49563392    -0.56400
N37         N  0.05550133  0.51116041  0.48114155    -0.35800
N38         N  0.99951442  0.45343030  0.48596113    -0.56400
C39         C  0.42019885  0.04742962  0.51304718     0.27800
C40         C  0.42140227  0.48353075  0.50925074     0.27800
C41         C  0.07354205  0.04050003  0.49364199     0.27800
C42         C  0.07439615  0.47639058  0.48952537     0.27800
C43         C  0.46817858  0.09864916  0.49207724     0.36400
C44         C  0.02730936  0.09613668  0.48607629     0.36400
C45         C  0.47156449  0.43340722  0.47829874     0.36400
C46         C  0.03090217  0.43072897  0.47122407     0.36400
C47         C  0.38410580  0.03517016  0.53534067    -0.21100
C48         C  0.38490743  0.49466599  0.53334176    -0.21100
C49         C  0.10494930  0.02429624  0.50848625    -0.21100
C50         C  0.10525717  0.48383493  0.50646296    -0.21100
C51         C  0.47959261  0.13758969  0.48054592    -0.22100
C52         C  0.01695434  0.13606690  0.47740054    -0.22100
C53         C  0.48532874  0.39789566  0.45811942    -0.22100
C54         C  0.02294738  0.39604984  0.45406108    -0.22100
C55         C  0.43089473  0.08738165  0.50317269    -0.17500
C56         C  0.43345720  0.44522100  0.49406762    -0.17500
C57         C  0.06536336  0.43838662  0.48019384    -0.17500
C58         C  0.06299614  0.08161770  0.49028829    -0.17500
H59         H  0.35966072  0.05362353  0.55054904     0.15400
H60         H  0.36112889  0.47578600  0.54655719     0.15400
H61         H  0.12550655  0.03987380  0.51987160     0.15400
H62         H  0.12606993  0.46241084  0.51599288     0.15400
H63         H  0.46258652  0.16441716  0.47640024     0.13700
H64         H  0.03420160  0.16164841  0.47042148     0.13700
H65         H  0.46974238  0.37514137  0.44890719     0.13700
H66         H  0.04211417  0.37155421  0.44133881     0.13700
H67         H  0.46962866  0.01747026  0.47276238     0.27000
H68         H  0.03351396  0.51507589  0.46338077     0.27000
O69         O  0.21930187  0.24454254  0.13757662    -0.80100
O70         O  0.22478130  0.24518806  0.90236196    -0.64800
O71         O  0.23957897  0.21301126  0.03967285    -1.11400
C72         C  0.33519793  0.30621946  0.98392266     1.06800
O73         O  0.28498501  0.23881197  0.86540415    -0.78000
O74         O  0.33245226  0.21797166  0.92496767    -0.65600
Ni75       Ni  0.19836059  0.20989769  0.10088342     1.34900
C76         C  0.33470156  0.20014735  0.96936820     0.85600
O77         O  0.19295962  0.18955462  0.98151859    -0.78500
O78         O  0.17532824  0.17369833  0.06979965    -0.88800
C79         C  0.25190513  0.24567240  0.86128353     0.85100
O80         O  0.16767462  0.25393211  0.08044943    -0.67000
O81         O  0.33739066  0.29737612  0.93743282    -0.86300
C82         C  0.16900125  0.27541407  0.03678879     0.86000
C83         C  0.17385529  0.16918818  0.02300000     1.07500
H84         H  0.25662262  0.29277564  0.96489479     0.39300
O85         O  0.26789421  0.26620638  0.96523304    -1.08900
O86         O  0.31558333  0.21180226  0.01308880    -0.65600
Ni87       Ni  0.27595957  0.25158554  0.03381727     1.26300
O88         O  0.19305579  0.26899912  0.99416618    -0.65800
O89         O  0.31170356  0.29137107  0.02533435    -0.78100
C90         C  0.25203899  0.24032140  0.14413398     0.85300
O91         O  0.28001542  0.23704724  0.10477947    -0.65300
Ni92       Ni  0.30946860  0.26724212  0.90466328     1.27400
Ni93       Ni  0.23052634  0.22839088  0.97195057     1.26100
H94         H  0.25167010  0.18670952  0.03868250     0.39900
O95         O  0.20333777  0.27287457  0.63717784    -0.80100
O96         O  0.23035773  0.25345796  0.39404922    -0.64800
O97         O  0.22736260  0.23851148  0.54157455    -1.11400
C98         C  0.32666299  0.32989817  0.48584821     1.06800
O99         O  0.29161136  0.24585241  0.37223843    -0.78000
O100        O  0.33398101  0.24123473  0.44043755    -0.65600
Ni101      Ni  0.18153829  0.24537401  0.59356316     1.34900
C102        C  0.32721098  0.22132256  0.48585578     0.85600
O103        O  0.19126525  0.20639042  0.47730862    -0.78500
O104        O  0.15438427  0.21699022  0.55716325    -0.88800
C105        C  0.26090368  0.24792105  0.35971449     0.85100
O106        O  0.16879916  0.29555594  0.56111069    -0.67000
O107        O  0.32912952  0.32219515  0.43891143    -0.86300
C108        C  0.16802207  0.30575581  0.51349400     0.86000
C109        C  0.16182974  0.20001588  0.51472980     1.08500
H110        H  0.25175346  0.31150169  0.45889344     0.39300
O111        O  0.26308111  0.28523998  0.46343664    -1.08900
O112        O  0.30120823  0.23123801  0.52466161    -0.65600
Ni113      Ni  0.26555527  0.27525247  0.53550198     1.26300
O114        O  0.18739216  0.28739171  0.47529490    -0.65800
O115        O  0.30433543  0.31265923  0.52706774    -0.78100
C116        C  0.23522975  0.26725751  0.64620309     0.85300
O117        O  0.26457149  0.26429494  0.60880794    -0.65300
Ni118      Ni  0.30842560  0.28388826  0.40845353     1.27400
Ni119      Ni  0.22699053  0.24623968  0.46860488     1.26100
H120        H  0.23653307  0.21161719  0.54913692     0.39900
C121        C  0.23771124  0.26435810  0.70203850    -0.04500
C122        C  0.26487596  0.28500132  0.71556169    -0.01600
C123        C  0.26936689  0.27892856  0.76756505     0.03400
C124        C  0.24557061  0.25339780  0.80731324    -0.04500
C125        C  0.21626484  0.23555219  0.79476505    -0.01600
C126        C  0.21280440  0.24034917  0.74225268     0.03300
C127        C  0.28638212  0.31471583  0.67707046     0.38000
C128        C  0.18968574  0.21175543  0.83533176     0.38000
C129        C  0.18398619  0.21952451  0.72964198     0.36400
C130        C  0.29772117  0.30032814  0.78042526     0.36400
N131        N  0.16089173  0.20297139  0.71985861    -0.38400
N132        N  0.32037856  0.31738267  0.79052433    -0.38400
N133        N  0.16760918  0.19338068  0.86714672    -0.37900
N134        N  0.30289908  0.33919398  0.64698794    -0.37900
C135        C  0.26121877  0.24326722  0.30410973    -0.04500
C136        C  0.23825786  0.21572306  0.29332545    -0.01600
C137        C  0.23468587  0.21544407  0.24132692     0.03400
C138        C  0.25699492  0.23993698  0.19860295    -0.04500
C139        C  0.28379415  0.26348827  0.20862081    -0.01600
C140        C  0.28516910  0.26601470  0.26125196     0.03300
C141        C  0.22202576  0.18452228  0.33430153     0.38000
C142        C  0.31001564  0.28531538  0.16521779     0.38000
C143        C  0.31132905  0.29213930  0.27115922     0.36400
C144        C  0.20907787  0.18858677  0.23163133     0.36400
N145        N  0.33234948  0.31271524  0.27912649    -0.38400
N146        N  0.18855277  0.16730743  0.22386993    -0.38400
N147        N  0.33177833  0.30229812  0.13122430    -0.37900
N148        N  0.21031343  0.15860785  0.36623397    -0.37900
C149        C  0.09143838  0.40360509  0.48678270    -0.04500
C150        C  0.12580935  0.39892702  0.44894298    -0.01600
C151        C  0.15126994  0.36748374  0.45760300     0.03400
C152        C  0.14184522  0.33947918  0.50337201    -0.04500
C153        C  0.10659779  0.34365278  0.54032133    -0.01600
C154        C  0.08192615  0.37576611  0.53233481     0.03300
C155        C  0.13472584  0.42639669  0.40084851     0.38000
C156        C  0.09497602  0.31464700  0.58659322     0.38000
C157        C  0.04661919  0.38033047  0.57151964     0.36400
C158        C  0.18771202  0.36527364  0.42051141     0.36400
N159        N  0.01847238  0.38382514  0.60272898    -0.38400
N160        N  0.21683879  0.36386564  0.39093601    -0.38400
N161        N  0.08571307  0.29175135  0.62365900    -0.37900
N162        N  0.14163269  0.44823686  0.36236353    -0.37900
C163        C  0.35169612  0.36066438  0.49150962    -0.04500
C164        C  0.35572577  0.39671997  0.45706572    -0.01600
C165        C  0.38256948  0.42396639  0.45765687     0.03400
C166        C  0.40464011  0.41637847  0.49415513    -0.04500
C167        C  0.39956971  0.38128406  0.53008172    -0.01600
C168        C  0.37405780  0.35301835  0.52770647     0.03300
C169        C  0.33219841  0.40602909  0.42082622     0.38000
C170        C  0.42089685  0.37401892  0.56931081     0.38000
C171        C  0.37289932  0.31502189  0.56014516     0.36400
C172        C  0.38799992  0.45957933  0.41989011     0.36400
N173        N  0.37262346  0.28481481  0.58617332    -0.38400
N174        N  0.39235446  0.48803943  0.38992704    -0.38400
N175        N  0.43779665  0.36801867  0.60072396    -0.37900
N176        N  0.31351511  0.41349304  0.39185335    -0.37900
C177        C  0.35088246  0.18461227  0.49303961    -0.04500
C178        C  0.36069324  0.17287289  0.54151847    -0.01600
C179        C  0.38635142  0.14063556  0.54523217     0.03400
C180        C  0.40156349  0.11929763  0.50137621    -0.04500
C181        C  0.39015896  0.12909235  0.45438794    -0.01600
C182        C  0.36473256  0.16124463  0.45025188     0.03300
C183        C  0.34486800  0.19358990  0.58783981     0.38000
C184        C  0.40540112  0.10644406  0.40963121     0.38000
C185        C  0.35216941  0.16905668  0.40212405     0.36400
C186        C  0.39774110  0.12966896  0.59387504     0.36400
N187        N  0.34246995  0.17469729  0.36347813    -0.38400
N188        N  0.40698420  0.12089882  0.63253935    -0.38400
N189        N  0.41762465  0.08841574  0.37398782    -0.37900
N190        N  0.33214024  0.20919239  0.62560688    -0.37900
C191        C  0.13507151  0.17090102  0.50924005    -0.04500
C192        C  0.11708630  0.14430531  0.55334412    -0.01600
C193        C  0.09317064  0.11573211  0.54712775     0.03400
C194        C  0.08930269  0.11118058  0.49630612    -0.04500
C195        C  0.10747921  0.13732121  0.45228069    -0.01600
C196        C  0.12793945  0.16878041  0.45951321     0.03300
C197        C  0.12292195  0.14598702  0.60537043     0.38000
C198        C  0.10434449  0.13237561  0.39970565     0.38000
C199        C  0.13809594  0.20121812  0.41746783     0.36400
C200        C  0.07215129  0.09115931  0.59320535     0.36400
N201        N  0.14540297  0.22755214  0.38438466    -0.38400
N202        N  0.05526990  0.07161026  0.62986887    -0.38400
N203        N  0.10199884  0.12822549  0.35774938    -0.37900
N204        N  0.12732327  0.14729457  0.64701588    -0.37900
C205        C  0.14111749  0.30952168  0.03475693    -0.04500
C206        C  0.12909028  0.33347897  0.07715324    -0.01600
C207        C  0.10316171  0.36579149  0.07446789     0.03400
C208        C  0.08922184  0.37496986  0.02933039    -0.04500
C209        C  0.10103879  0.35130807  0.98707897    -0.01600
C210        C  0.12665988  0.31885946  0.98965902     0.03300
C211        C  0.14451526  0.32623423  0.12273177     0.38000
C212        C  0.08699222  0.36070179  0.94035866     0.38000
C213        C  0.13743348  0.29500435  0.94559808     0.36400
C214        C  0.09082786  0.38989687  0.11813002     0.36400
N215        N  0.14571909  0.27661173  0.90980179    -0.38400
N216        N  0.08093986  0.40926753  0.15283547    -0.38400
N217        N  0.07580981  0.36814075  0.90311621    -0.37900
N218        N  0.15688499  0.32059426  0.15905696    -0.37900
C219        C  0.41121613  0.39332344  0.99650733    -0.04500
C220        C  0.37391156  0.39425690  0.02743352    -0.01600
C221        C  0.34882473  0.36634011  0.02274769     0.03400
C222        C  0.36144400  0.33569885  0.98943728    -0.04500
C223        C  0.39912792  0.33427875  0.95965949    -0.01600
C224        C  0.42343918  0.36372594  0.96175931     0.03300
C225        C  0.36135672  0.42391697  0.06425597     0.38000
C226        C  0.41361396  0.30173983  0.92811661     0.38000
C227        C  0.46122214  0.36352585  0.92795016     0.36400
C228        C  0.30980319  0.37014382  0.05100745     0.36400
N229        N  0.49133979  0.36322427  0.90105592    -0.38400
N230        N  0.27871451  0.37319089  0.07364489    -0.38400
N231        N  0.42565173  0.27585276  0.90307757    -0.37900
N232        N  0.35132292  0.44760595  0.09356841    -0.37900
C233        C  0.36156907  0.16464738  0.96974972    -0.04500
C234        C  0.35571251  0.13420501  0.01321754    -0.01600
C235        C  0.38237430  0.10256032  0.01489915     0.03400
C236        C  0.41497699  0.10021055  0.97306870    -0.04500
C237        C  0.42011290  0.12901676  0.92846939    -0.01600
C238        C  0.39376824  0.16093875  0.92657676     0.03300
C239        C  0.32169344  0.13411412  0.05574173     0.38000
C240        C  0.45273289  0.12578294  0.88424495     0.38000
C241        C  0.40051563  0.18979982  0.87968626     0.36400
C242        C  0.37645182  0.07228191  0.06022030     0.36400
N243        N  0.40579406  0.21244518  0.84192798    -0.38400
N244        N  0.37188864  0.04794550  0.09611440    -0.38400
N245        N  0.47871769  0.12344761  0.84889364    -0.37900
N246        N  0.29465618  0.13349423  0.08986697    -0.37900
C247        C  0.14791513  0.13890088  0.01735360    -0.04500
C248        C  0.15557769  0.11854785  0.97146958    -0.01600
C249        C  0.12903193  0.09331815  0.96429532     0.03400
C250        C  0.09726289  0.08332562  0.00603395    -0.04500
C251        C  0.09124466  0.10058557  0.05379936    -0.01600
C252        C  0.11500704  0.12989454  0.05830844     0.03300
C253        C  0.19160669  0.12125528  0.93309388     0.38000
C254        C  0.05993704  0.08867209  0.09818794     0.38000
C255        C  0.10437740  0.15149218  0.10467539     0.36400
C256        C  0.13436692  0.07762635  0.91389264     0.36400
N257        N  0.09574795  0.16879261  0.14154916    -0.38400
N258        N  0.13845387  0.06513769  0.87370144    -0.38400
N259        N  0.03498731  0.07914340  0.13350866    -0.37900
N260        N  0.22047070  0.12293935  0.90269307    -0.37900
N261        N  0.05606733  0.98349822  0.01266676    -0.35800
N262        N  0.50685564  0.55029440  0.98738670    -0.56400
N263        N  0.45013932  0.49433977  0.99241186    -0.35800
N264        N  0.00038748  0.92798346  0.01309478    -0.56400
C265        C  0.07986079  0.51373507  0.00204251     0.27800
C266        C  0.07659905  0.94882601  0.01308669     0.27800
C267        C  0.43526439  0.52815433  0.97175969     0.27800
C268        C  0.43282475  0.96339862  0.98250542     0.27800
C269        C  0.03414834  0.57103798  0.99583506     0.36400
C270        C  0.47781481  0.57649762  0.98620806     0.36400
C271        C  0.02483332  0.90212237  0.03073573     0.36400
C272        C  0.46874504  0.90825433  0.02097676     0.36400
C273        C  0.11588400  0.49795197  0.99707768    -0.21100
C274        C  0.11387444  0.95715566  0.00308607    -0.21100
C275        C  0.40799801  0.51872383  0.94875811    -0.21100
C276        C  0.40669816  0.97779993  0.95505816    -0.21100
C277        C  0.02272340  0.61084476  0.99810576    -0.22100
C278        C  0.48697758  0.61415760  0.99271999    -0.22100
C279        C  0.00868917  0.86573503  0.04998538    -0.22100
C280        C  0.47299937  0.86971273  0.04425997    -0.22100
C281        C  0.06964183  0.55503220  0.00024041    -0.17500
C282        C  0.06250537  0.90989978  0.02538025    -0.17500
C283        C  0.43805544  0.92282859  0.00109344    -0.17500
C284        C  0.44378976  0.56732598  0.97669083    -0.17500
H285        H  0.14119747  0.51389106  0.99036306     0.15400
H286        H  0.13719662  0.93605573  0.00164883     0.15400
H287        H  0.39068989  0.53924257  0.92975584     0.15400
H288        H  0.38801255  0.96066599  0.94198009     0.15400
H289        H  0.03837948  0.63515047  0.00325316     0.13700
H290        H  0.46990265  0.64134041  0.99291446     0.13700
H291        H  0.02151877  0.83895637  0.06562085     0.13700
H292        H  0.45293978  0.84644073  0.05427789     0.13700
H293        H  0.02727803  0.98660084  0.02468683     0.27000
H294        H  0.46754072  0.49278959  0.01764205     0.27000
N295        N  0.44270296  0.51588015  0.49722485    -0.35800
N296        N  0.49730942  0.57339511  0.49563390    -0.56400
N297        N  0.05550129  0.01116035  0.48114169    -0.35800
N298        N  0.99951437  0.95343022  0.48596124    -0.56400
C299        C  0.42019885  0.54742957  0.51304726     0.27800
C300        C  0.42140226  0.98353076  0.50925074     0.27800
C301        C  0.07354205  0.54050008  0.49364192     0.27800
C302        C  0.07439607  0.97639051  0.48952559     0.27800
C303        C  0.46817857  0.59864911  0.49207724     0.36400
C304        C  0.02730940  0.59613671  0.48607607     0.36400
C305        C  0.47156442  0.93340712  0.47829898     0.36400
C306        C  0.03090213  0.93072889  0.47122419     0.36400
C307        C  0.38410577  0.53517011  0.53534076    -0.21100
C308        C  0.38490743  0.99466603  0.53334173    -0.21100
C309        C  0.10494930  0.52429630  0.50848618    -0.21100
C310        C  0.10525710  0.98383485  0.50646321    -0.21100
C311        C  0.47959256  0.63758966  0.48054602    -0.22100
C312        C  0.01695436  0.63606693  0.47740028    -0.22100
C313        C  0.48532872  0.89789559  0.45811971    -0.22100
C314        C  0.02294735  0.89604981  0.45406113    -0.22100
C315        C  0.43089471  0.58738160  0.50317274    -0.17500
C316        C  0.43345717  0.94522096  0.49406776    -0.17500
C317        C  0.06536330  0.93838656  0.48019399    -0.17500
C318        C  0.06299615  0.58161775  0.49028817    -0.17500
H319        H  0.35966064  0.55362349  0.55054914     0.15400
H320        H  0.36112883  0.97578609  0.54655728     0.15400
H321        H  0.12550652  0.53987387  0.51987159     0.15400
H322        H  0.12606983  0.96241076  0.51599322     0.15400
H323        H  0.46258644  0.66441713  0.47640040     0.13700
H324        H  0.03420163  0.66164844  0.47042120     0.13700
H325        H  0.46974241  0.87514132  0.44890753     0.13700
H326        H  0.04211410  0.87155421  0.44133881     0.13700
H327        H  0.46962864  0.51747019  0.47276239     0.27000
H328        H  0.03351390  0.01507586  0.46338091     0.27000
O329        O  0.21930193  0.74454247  0.13757668    -0.80100
O330        O  0.22478132  0.74518804  0.90236196    -0.64800
O331        O  0.23957895  0.71301126  0.03967286    -1.11400
C332        C  0.33519795  0.80621941  0.98392266     1.06800
O333        O  0.28498503  0.73881186  0.86540417    -0.78000
O334        O  0.33245231  0.71797160  0.92496768    -0.65600
Ni335      Ni  0.19836058  0.70989770  0.10088344     1.34900
C336        C  0.33470158  0.70014726  0.96936821     0.85600
O337        O  0.19295959  0.68955465  0.98151861    -0.78500
O338        O  0.17532819  0.67369839  0.06979967    -0.88800
C339        C  0.25190516  0.74567232  0.86128354     0.85100
O340        O  0.16767466  0.75393217  0.08044944    -0.67000
O341        O  0.33739070  0.79737605  0.93743281    -0.86300
C342        C  0.16900127  0.77541411  0.03678878     0.86000
C343        C  0.17385526  0.66918822  0.02300003     1.07500
H344        H  0.25662281  0.79277524  0.96489480     0.39300
O345        O  0.26789419  0.76620642  0.96523304    -1.08900
O346        O  0.31558331  0.71180215  0.01308881    -0.65600
Ni347      Ni  0.27595960  0.75158549  0.03381727     1.26300
O348        O  0.19305580  0.76899914  0.99416616    -0.65800
O349        O  0.31170360  0.79137100  0.02533434    -0.78100
C350        C  0.25203907  0.74032130  0.14413399     0.85300
O351        O  0.28001547  0.73704715  0.10477946    -0.65300
Ni352      Ni  0.30946864  0.76724203  0.90466327     1.27400
Ni353      Ni  0.23052634  0.72839088  0.97195058     1.26100
H354        H  0.25167007  0.68670950  0.03868251     0.39900
O355        O  0.20333771  0.77287436  0.63717792    -0.80100
O356        O  0.23035781  0.75345787  0.39404923    -0.64800
O357        O  0.22736262  0.73851141  0.54157455    -1.11400
C358        C  0.32666299  0.82989815  0.48584825     1.06800
O359        O  0.29161144  0.74585235  0.37223847    -0.78000
O360        O  0.33398108  0.74123473  0.44043764    -0.65600
Ni361      Ni  0.18153828  0.74537389  0.59356311     1.34900
C362        C  0.32721099  0.72132251  0.48585583     0.85600
O363        O  0.19126534  0.70639029  0.47730859    -0.78500
O364        O  0.15438428  0.71699019  0.55716312    -0.88800
C365        C  0.26090377  0.74792100  0.35971450     0.85100
O366        O  0.16879916  0.79555583  0.56111067    -0.67000
O367        O  0.32912952  0.82219517  0.43891145    -0.86300
C368        C  0.16802207  0.80575572  0.51349398     0.86000
C369        C  0.16182979  0.70001581  0.51472970     1.08500
H370        H  0.25175337  0.81150180  0.45889342     0.39300
O371        O  0.26308115  0.78523988  0.46343667    -1.08900
O372        O  0.30120821  0.73123793  0.52466165    -0.65600
Ni373      Ni  0.26555528  0.77525242  0.53550199     1.26300
O374        O  0.18739217  0.78739162  0.47529488    -0.65800
O375        O  0.30433545  0.81265917  0.52706776    -0.78100
C376        C  0.23522972  0.76725743  0.64620313     0.85300
O377        O  0.26457147  0.76429494  0.60880796    -0.65300
Ni378      Ni  0.30842565  0.78388822  0.40845357     1.27400
Ni379      Ni  0.22699058  0.74623959  0.46860488     1.26100
H380        H  0.23653310  0.71161713  0.54913692     0.39900
C381        C  0.23771120  0.76435804  0.70203854    -0.04500
C382        C  0.26487588  0.78500134  0.71556174    -0.01600
C383        C  0.26936683  0.77892856  0.76756510     0.03400
C384        C  0.24557064  0.75339771  0.80731324    -0.04500
C385        C  0.21626490  0.73555202  0.79476506    -0.01600
C386        C  0.21280443  0.74034902  0.74225270     0.03300
C387        C  0.28638202  0.81471587  0.67707051     0.38000
C388        C  0.18968578  0.71175533  0.83533184     0.38000
C389        C  0.18398622  0.71952433  0.72964202     0.36400
C390        C  0.29772109  0.80032818  0.78042530     0.36400
N391        N  0.16089177  0.70297120  0.71985865    -0.38400
N392        N  0.32037849  0.81738273  0.79052433    -0.38400
N393        N  0.16760920  0.69338069  0.86714692    -0.37900
N394        N  0.30289900  0.83919401  0.64698801    -0.37900
C395        C  0.26121886  0.74326719  0.30410976    -0.04500
C396        C  0.23825793  0.71572303  0.29332549    -0.01600
C397        C  0.23468597  0.71544398  0.24132696     0.03400
C398        C  0.25699502  0.73993688  0.19860298    -0.04500
C399        C  0.28379419  0.76348825  0.20862085    -0.01600
C400        C  0.28516915  0.76601469  0.26125199     0.03300
C401        C  0.22202576  0.68452230  0.33430159     0.38000
C402        C  0.31001562  0.78531544  0.16521787     0.38000
C403        C  0.31132908  0.79213933  0.27115926     0.36400
C404        C  0.20907795  0.68858668  0.23163138     0.36400
N405        N  0.33234951  0.81271530  0.27912650    -0.38400
N406        N  0.18855282  0.66730738  0.22386999    -0.38400
N407        N  0.33177830  0.80229825  0.13122445    -0.37900
N408        N  0.21031337  0.65860790  0.36623404    -0.37900
C409        C  0.09143834  0.90360504  0.48678277    -0.04500
C410        C  0.12580931  0.89892701  0.44894303    -0.01600
C411        C  0.15126992  0.86748371  0.45760302     0.03400
C412        C  0.14184521  0.83947912  0.50337200    -0.04500
C413        C  0.10659779  0.84365274  0.54032134    -0.01600
C414        C  0.08192614  0.87576605  0.53233485     0.03300
C415        C  0.13472578  0.92639669  0.40084856     0.38000
C416        C  0.09497608  0.81464700  0.58659328     0.38000
C417        C  0.04661917  0.88033042  0.57151968     0.36400
C418        C  0.18771200  0.86527366  0.42051143     0.36400
N419        N  0.01847234  0.88382514  0.60272898    -0.38400
N420        N  0.21683877  0.86386571  0.39093601    -0.38400
N421        N  0.08571321  0.79175138  0.62365910    -0.37900
N422        N  0.14163263  0.94823685  0.36236357    -0.37900
C423        C  0.35169609  0.86066437  0.49150972    -0.04500
C424        C  0.35572576  0.89671999  0.45706583    -0.01600
C425        C  0.38256948  0.92396636  0.45765697     0.03400
C426        C  0.40464007  0.91637845  0.49415528    -0.04500
C427        C  0.39956964  0.88128406  0.53008192    -0.01600
C428        C  0.37405775  0.85301835  0.52770661     0.03300
C429        C  0.33219837  0.90602914  0.42082637     0.38000
C430        C  0.42089679  0.87401888  0.56931098     0.38000
C431        C  0.37289928  0.81502188  0.56014528     0.36400
C432        C  0.38799993  0.95957931  0.41989018     0.36400
N433        N  0.37262341  0.78481480  0.58617343    -0.38400
N434        N  0.39235442  0.98803943  0.38992712    -0.38400
N435        N  0.43779661  0.86801852  0.60072409    -0.37900
N436        N  0.31351507  0.91349312  0.39185352    -0.37900
C437        C  0.35088245  0.68461221  0.49303965    -0.04500
C438        C  0.36069318  0.67287281  0.54151855    -0.01600
C439        C  0.38635136  0.64063547  0.54523224     0.03400
C440        C  0.40156347  0.61929757  0.50137628    -0.04500
C441        C  0.39015898  0.62909231  0.45438797    -0.01600
C442        C  0.36473259  0.66124461  0.45025191     0.03300
C443        C  0.34486796  0.69358985  0.58783985     0.38000
C444        C  0.40540111  0.60644400  0.40963126     0.38000
C445        C  0.35216945  0.66905669  0.40212406     0.36400
C446        C  0.39774107  0.62966893  0.59387510     0.36400
N447        N  0.34246998  0.67469731  0.36347815    -0.38400
N448        N  0.40698419  0.62089889  0.63253940    -0.38400
N449        N  0.41762461  0.58841564  0.37398790    -0.37900
N450        N  0.33214020  0.70919239  0.62560688    -0.37900
C451        C  0.13507151  0.67090102  0.50923996    -0.04500
C452        C  0.11708625  0.64430537  0.55334405    -0.01600
C453        C  0.09317057  0.61573220  0.54712766     0.03400
C454        C  0.08930268  0.61118065  0.49630601    -0.04500
C455        C  0.10747919  0.63732128  0.45228058    -0.01600
C456        C  0.12793943  0.66878047  0.45951312     0.03300
C457        C  0.12292188  0.64598707  0.60537037     0.38000
C458        C  0.10434448  0.63237570  0.39970553     0.38000
C459        C  0.13809592  0.70121821  0.41746778     0.36400
C460        C  0.07215121  0.59115942  0.59320526     0.36400
N461        N  0.14540295  0.72755225  0.38438464    -0.38400
N462        N  0.05526981  0.57161037  0.62986878    -0.38400
N463        N  0.10199883  0.62822558  0.35774926    -0.37900
N464        N  0.12732322  0.64729464  0.64701582    -0.37900
C465        C  0.14111750  0.80952172  0.03475691    -0.04500
C466        C  0.12909030  0.83347900  0.07715321    -0.01600
C467        C  0.10316168  0.86579148  0.07446787     0.03400
C468        C  0.08922182  0.87496984  0.02933038    -0.04500
C469        C  0.10103878  0.85130806  0.98707895    -0.01600
C470        C  0.12665988  0.81885948  0.98965900     0.03300
C471        C  0.14451529  0.82623430  0.12273174     0.38000
C472        C  0.08699220  0.86070179  0.94035864     0.38000
C473        C  0.13743348  0.79500437  0.94559805     0.36400
C474        C  0.09082781  0.88989685  0.11813001     0.36400
N475        N  0.14571908  0.77661178  0.90980174    -0.38400
N476        N  0.08093982  0.90926752  0.15283544    -0.38400
N477        N  0.07580977  0.86814075  0.90311621    -0.37900
N478        N  0.15688503  0.82059436  0.15905692    -0.37900
C479        C  0.41121613  0.89332340  0.99650739    -0.04500
C480        C  0.37391157  0.89425686  0.02743360    -0.01600
C481        C  0.34882475  0.86634005  0.02274776     0.03400
C482        C  0.36144400  0.83569883  0.98943730    -0.04500
C483        C  0.39912792  0.83427874  0.95965950    -0.01600
C484        C  0.42343918  0.86372591  0.96175937     0.03300
C485        C  0.36135671  0.92391697  0.06425598     0.38000
C486        C  0.41361400  0.80173975  0.92811675     0.38000
C487        C  0.46122215  0.86352581  0.92795028     0.36400
C488        C  0.30980321  0.87014372  0.05100752     0.36400
N489        N  0.49133982  0.86322425  0.90105612    -0.38400
N490        N  0.27871451  0.87319070  0.07364489    -0.38400
N491        N  0.42565184  0.77585261  0.90307788    -0.37900
N492        N  0.35132289  0.94760599  0.09356835    -0.37900
C493        C  0.36156910  0.66464729  0.96974975    -0.04500
C494        C  0.35571252  0.63420491  0.01321755    -0.01600
C495        C  0.38237431  0.60256021  0.01489915     0.03400
C496        C  0.41497702  0.60021050  0.97306874    -0.04500
C497        C  0.42011295  0.62901670  0.92846943    -0.01600
C498        C  0.39376826  0.66093869  0.92657680     0.03300
C499        C  0.32169344  0.63411404  0.05574174     0.38000
C500        C  0.45273291  0.62578285  0.88424497     0.38000
C501        C  0.40051565  0.68979975  0.87968629     0.36400
C502        C  0.37645180  0.57228175  0.06022027     0.36400
N503        N  0.40579402  0.71244513  0.84192803    -0.38400
N504        N  0.37188863  0.54794532  0.09611433    -0.38400
N505        N  0.47871768  0.62344747  0.84889363    -0.37900
N506        N  0.29465617  0.63349423  0.08986694    -0.37900
C507        C  0.14791511  0.63890091  0.01735364    -0.04500
C508        C  0.15557770  0.61854784  0.97146965    -0.01600
C509        C  0.12903195  0.59331815  0.96429537     0.03400
C510        C  0.09726286  0.58332566  0.00603399    -0.04500
C511        C  0.09124463  0.60058563  0.05379938    -0.01600
C512        C  0.11500701  0.62989459  0.05830848     0.03300
C513        C  0.19160672  0.62125528  0.93309395     0.38000
C514        C  0.05993702  0.58867209  0.09818796     0.38000
C515        C  0.10437737  0.65149222  0.10467543     0.36400
C516        C  0.13436694  0.57762629  0.91389273     0.36400
N517        N  0.09574792  0.66879266  0.14154921    -0.38400
N518        N  0.13845384  0.56513759  0.87370156    -0.38400
N519        N  0.03498731  0.57914327  0.13350864    -0.37900
N520        N  0.22047075  0.62293943  0.90269318    -0.37900
N521        N  0.55606737  0.48349826  0.01266668    -0.35800
N522        N  0.00685560  0.05029444  0.98738669    -0.56400
N523        N  0.95013929  0.99433982  0.99241187    -0.35800
N524        N  0.50038747  0.42798353  0.01309478    -0.56400
C525        C  0.57986078  0.01373507  0.00204235     0.27800
C526        C  0.57659911  0.44882606  0.01308651     0.27800
C527        C  0.93526436  0.02815439  0.97175971     0.27800
C528        C  0.93282471  0.46339863  0.98250545     0.27800
C529        C  0.53414834  0.07103800  0.99583498     0.36400
C530        C  0.97781479  0.07649769  0.98620805     0.36400
C531        C  0.52483333  0.40212244  0.03073569     0.36400
C532        C  0.96874502  0.40825438  0.02097677     0.36400
C533        C  0.61588407  0.99795198  0.99707738    -0.21100
C534        C  0.61387453  0.45715566  0.00308582    -0.21100
C535        C  0.90799799  0.01872388  0.94875813    -0.21100
C536        C  0.90669813  0.47779991  0.95505821    -0.21100
C537        C  0.52272343  0.11084478  0.99810559    -0.22100
C538        C  0.98697760  0.11415763  0.99272000    -0.22100
C539        C  0.50868918  0.36573506  0.04998536    -0.22100
C540        C  0.97299932  0.36971276  0.04425997    -0.22100
C541        C  0.56964183  0.05503219  0.00024031    -0.17500
C542        C  0.56250541  0.40989982  0.02538015    -0.17500
C543        C  0.93805543  0.42282861  0.00109342    -0.17500
C544        C  0.94378973  0.06732606  0.97669083    -0.17500
H545        H  0.64119753  0.01389111  0.99036273     0.15400
H546        H  0.63719679  0.43605573  0.00164847     0.15400
H547        H  0.89068987  0.03924260  0.92975584     0.15400
H548        H  0.88801252  0.46066597  0.94198013     0.15400
H549        H  0.53837953  0.13515048  0.00325289     0.13700
H550        H  0.96990271  0.14134041  0.99291448     0.13700
H551        H  0.52151884  0.33895637  0.06562078     0.13700
H552        H  0.95293969  0.34644076  0.05427789     0.13700
H553        H  0.52727817  0.48660090  0.02468681     0.27000
H554        H  0.96754072  0.99278959  0.01764204     0.27000
N555        N  0.94270295  0.01588016  0.49722486    -0.35800
N556        N  0.99730941  0.07339512  0.49563391    -0.56400
N557        N  0.55550132  0.51116040  0.48114160    -0.35800
N558        N  0.49951441  0.45343032  0.48596107    -0.56400
C559        C  0.92019884  0.04742959  0.51304725     0.27800
C560        C  0.92140231  0.48353077  0.50925074     0.27800
C561        C  0.57354204  0.04050007  0.49364198     0.27800
C562        C  0.57439611  0.47639055  0.48952550     0.27800
C563        C  0.96817856  0.09864914  0.49207726     0.36400
C564        C  0.52730939  0.09613670  0.48607618     0.36400
C565        C  0.97156448  0.43340716  0.47829893     0.36400
C566        C  0.53090215  0.43072896  0.47122409     0.36400
C567        C  0.88410577  0.03517010  0.53534073    -0.21100
C568        C  0.88490742  0.49466604  0.53334165    -0.21100
C569        C  0.60494928  0.02429627  0.50848626    -0.21100
C570        C  0.60525713  0.48383488  0.50646314    -0.21100
C571        C  0.97959258  0.13758967  0.48054602    -0.22100
C572        C  0.51695438  0.13606692  0.47740032    -0.22100
C573        C  0.98532876  0.39789561  0.45811969    -0.22100
C574        C  0.52294735  0.39604987  0.45406101    -0.22100
C575        C  0.93089470  0.08738163  0.50317275    -0.17500
C576        C  0.93345720  0.44522098  0.49406772    -0.17500
C577        C  0.56536332  0.43838661  0.48019393    -0.17500
C578        C  0.56299615  0.08161774  0.49028823    -0.17500
H579        H  0.85966070  0.05362350  0.55054907     0.15400
H580        H  0.86112883  0.47578606  0.54655711     0.15400
H581        H  0.62550652  0.03987384  0.51987160     0.15400
H582        H  0.62606985  0.46241078  0.51599318     0.15400
H583        H  0.96258648  0.16441714  0.47640038     0.13700
H584        H  0.53420166  0.16164842  0.47042112     0.13700
H585        H  0.96974241  0.37514130  0.44890759     0.13700
H586        H  0.54211414  0.37155428  0.44133882     0.13700
H587        H  0.96962864  0.01747025  0.47276245     0.27000
H588        H  0.53351397  0.51507591  0.46338082     0.27000
O589        O  0.71930185  0.24454252  0.13757669    -0.80100
O590        O  0.72478132  0.24518806  0.90236195    -0.64800
O591        O  0.73957895  0.21301130  0.03967286    -1.11400
C592        C  0.83519790  0.30621951  0.98392267     1.06800
O593        O  0.78498504  0.23881198  0.86540415    -0.78000
O594        O  0.83245231  0.21797173  0.92496769    -0.65600
Ni595      Ni  0.69836057  0.20989769  0.10088344     1.34900
C596        C  0.83470159  0.20014740  0.96936822     0.85600
O597        O  0.69295960  0.18955463  0.98151860    -0.78500
O598        O  0.67532822  0.17369834  0.06979966    -0.88800
C599        C  0.75190515  0.24567241  0.86128352     0.85100
O600        O  0.66767461  0.25393211  0.08044946    -0.67000
O601        O  0.83739066  0.29737616  0.93743283    -0.86300
C602        C  0.66900123  0.27541407  0.03678882     0.86000
C603        C  0.67385527  0.16918818  0.02300002     1.07500
H604        H  0.75662261  0.29277567  0.96489478     0.39300
O605        O  0.76789420  0.26620640  0.96523303    -1.08900
O606        O  0.81558331  0.21180229  0.01308882    -0.65600
Ni607      Ni  0.77595955  0.25158558  0.03381727     1.26300
O608        O  0.69305577  0.26899913  0.99416620    -0.65800
O609        O  0.81170353  0.29137113  0.02533435    -0.78100
C610        C  0.75203898  0.24032139  0.14413399     0.85300
O611        O  0.78001540  0.23704730  0.10477946    -0.65300
Ni612      Ni  0.80946861  0.26724215  0.90466328     1.27400
Ni613      Ni  0.73052634  0.22839090  0.97195058     1.26100
H614        H  0.75167008  0.18670957  0.03868251     0.39900
O615        O  0.70333774  0.27287454  0.63717787    -0.80100
O616        O  0.73035782  0.25345794  0.39404921    -0.64800
O617        O  0.72736262  0.23851151  0.54157454    -1.11400
C618        C  0.82666303  0.32989816  0.48584823     1.06800
O619        O  0.79161145  0.24585242  0.37223839    -0.78000
O620        O  0.83398105  0.24123473  0.44043761    -0.65600
Ni621      Ni  0.68153829  0.24537403  0.59356311     1.34900
C622        C  0.82721098  0.22132254  0.48585582     0.85600
O623        O  0.69126534  0.20639038  0.47730861    -0.78500
O624        O  0.65438427  0.21699029  0.55716314    -0.88800
C625        C  0.76090377  0.24792102  0.35971448     0.85100
O626        O  0.66879918  0.29555596  0.56111066    -0.67000
O627        O  0.82912957  0.32219516  0.43891144    -0.86300
C628        C  0.66802208  0.30575581  0.51349397     0.86000
C629        C  0.66182979  0.20001589  0.51472974     1.08500
H630        H  0.75175341  0.31150187  0.45889340     0.39300
O631        O  0.76308118  0.28523995  0.46343664    -1.08900
O632        O  0.80120821  0.23123798  0.52466164    -0.65600
Ni633      Ni  0.76555530  0.27525248  0.53550199     1.26300
O634        O  0.68739220  0.28739171  0.47529488    -0.65800
O635        O  0.80433548  0.31265920  0.52706776    -0.78100
C636        C  0.73522973  0.26725752  0.64620311     0.85300
O637        O  0.76457148  0.26429496  0.60880796    -0.65300
Ni638      Ni  0.80842567  0.28388826  0.40845354     1.27400
Ni639      Ni  0.72699059  0.24623968  0.46860487     1.26100
H640        H  0.73653309  0.21161722  0.54913693     0.39900
C641        C  0.73771121  0.26435815  0.70203852    -0.04500
C642        C  0.76487591  0.28500139  0.71556171    -0.01600
C643        C  0.76936688  0.27892861  0.76756505     0.03400
C644        C  0.74557063  0.25339781  0.80731323    -0.04500
C645        C  0.71626486  0.23555218  0.79476504    -0.01600
C646        C  0.71280440  0.24034918  0.74225268     0.03300
C647        C  0.78638206  0.31471591  0.67707047     0.38000
C648        C  0.68968577  0.21175542  0.83533176     0.38000
C649        C  0.68398618  0.21952452  0.72964200     0.36400
C650        C  0.79772121  0.30032814  0.78042523     0.36400
N651        N  0.66089172  0.20297140  0.71985864    -0.38400
N652        N  0.82037865  0.31738260  0.79052429    -0.38400
N653        N  0.66760921  0.19338066  0.86714671    -0.37900
N654        N  0.80289902  0.33919406  0.64698795    -0.37900
C655        C  0.76121884  0.24326716  0.30410975    -0.04500
C656        C  0.73825793  0.21572298  0.29332548    -0.01600
C657        C  0.73468594  0.21544396  0.24132695     0.03400
C658        C  0.75699495  0.23993692  0.19860298    -0.04500
C659        C  0.78379415  0.26348823  0.20862083    -0.01600
C660        C  0.78516912  0.26601466  0.26125196     0.03300
C661        C  0.72202578  0.18452224  0.33430158     0.38000
C662        C  0.81001561  0.28531539  0.16521784     0.38000
C663        C  0.81132908  0.29213931  0.27115915     0.36400
C664        C  0.70907795  0.18858663  0.23163136     0.36400
N665        N  0.83234954  0.31271531  0.27912622    -0.38400
N666        N  0.68855284  0.16730730  0.22386997    -0.38400
N667        N  0.83177831  0.30229818  0.13122443    -0.37900
N668        N  0.71031338  0.15860784  0.36623402    -0.37900
C669        C  0.59143834  0.40360506  0.48678275    -0.04500
C670        C  0.62580931  0.39892702  0.44894300    -0.01600
C671        C  0.65126991  0.36748373  0.45760300     0.03400
C672        C  0.64184520  0.33947915  0.50337199    -0.04500
C673        C  0.60659777  0.34365275  0.54032132    -0.01600
C674        C  0.58192612  0.37576607  0.53233483     0.03300
C675        C  0.63472579  0.42639669  0.40084854     0.38000
C676        C  0.59497606  0.31464698  0.58659325     0.38000
C677        C  0.54661916  0.38033043  0.57151968     0.36400
C678        C  0.68771198  0.36527365  0.42051140     0.36400
N679        N  0.51847234  0.38382513  0.60272900    -0.38400
N680        N  0.71683876  0.36386564  0.39093601    -0.38400
N681        N  0.58571321  0.29175133  0.62365905    -0.37900
N682        N  0.64163264  0.44823685  0.36236355    -0.37900
C683        C  0.85169612  0.36066439  0.49150965    -0.04500
C684        C  0.85572580  0.39671997  0.45706572    -0.01600
C685        C  0.88256952  0.42396637  0.45765686     0.03400
C686        C  0.90464012  0.41637845  0.49415517    -0.04500
C687        C  0.89956971  0.38128406  0.53008177    -0.01600
C688        C  0.87405778  0.35301837  0.52770654     0.03300
C689        C  0.83219842  0.40602910  0.42082624     0.38000
C690        C  0.92089684  0.37401891  0.56931086     0.38000
C691        C  0.87289928  0.31502191  0.56014525     0.36400
C692        C  0.88799995  0.45957932  0.41989010     0.36400
N693        N  0.87262340  0.28481483  0.58617341    -0.38400
N694        N  0.89235444  0.48803944  0.38992705    -0.38400
N695        N  0.93779663  0.36801866  0.60072401    -0.37900
N696        N  0.81351511  0.41349304  0.39185340    -0.37900
C697        C  0.85088244  0.18461224  0.49303966    -0.04500
C698        C  0.86069318  0.17287286  0.54151855    -0.01600
C699        C  0.88635137  0.14063552  0.54523224     0.03400
C700        C  0.90156346  0.11929760  0.50137629    -0.04500
C701        C  0.89015895  0.12909233  0.45438800    -0.01600
C702        C  0.86473256  0.16124462  0.45025193     0.03300
C703        C  0.84486795  0.19358989  0.58783987     0.38000
C704        C  0.90540110  0.10644405  0.40963126     0.38000
C705        C  0.85216944  0.16905670  0.40212407     0.36400
C706        C  0.89774106  0.12966894  0.59387511     0.36400
N707        N  0.84246999  0.17469731  0.36347814    -0.38400
N708        N  0.90698417  0.12089882  0.63253940    -0.38400
N709        N  0.91762461  0.08841575  0.37398785    -0.37900
N710        N  0.83214019  0.20919240  0.62560692    -0.37900
C711        C  0.63507155  0.17090103  0.50924001    -0.04500
C712        C  0.61708632  0.14430535  0.55334408    -0.01600
C713        C  0.59317065  0.11573215  0.54712770     0.03400
C714        C  0.58930271  0.11118062  0.49630608    -0.04500
C715        C  0.60747925  0.13732122  0.45228065    -0.01600
C716        C  0.62793948  0.16878043  0.45951317     0.03300
C717        C  0.62292195  0.14598706  0.60537040     0.38000
C718        C  0.60434454  0.13237561  0.39970562     0.38000
C719        C  0.63809594  0.20121815  0.41746780     0.36400
C720        C  0.57215130  0.09115935  0.59320529     0.36400
N721        N  0.64540295  0.22755217  0.38438463    -0.38400
N722        N  0.55526990  0.07161028  0.62986878    -0.38400
N723        N  0.60199888  0.12822547  0.35774936    -0.37900
N724        N  0.62732324  0.14729458  0.64701587    -0.37900
C725        C  0.64111747  0.30952167  0.03475695    -0.04500
C726        C  0.62909029  0.33347899  0.07715322    -0.01600
C727        C  0.60316171  0.36579152  0.07446784     0.03400
C728        C  0.58922183  0.37496986  0.02933035    -0.04500
C729        C  0.60103875  0.35130801  0.98707898    -0.01600
C730        C  0.62665983  0.31885941  0.98965906     0.03300
C731        C  0.64451528  0.32623427  0.12273176     0.38000
C732        C  0.58699218  0.36070172  0.94035867     0.38000
C733        C  0.63743345  0.29500430  0.94559812     0.36400
C734        C  0.59082783  0.38989688  0.11812998     0.36400
N735        N  0.64571907  0.27661171  0.90980179    -0.38400
N736        N  0.58093982  0.40926753  0.15283544    -0.38400
N737        N  0.57580977  0.36814067  0.90311621    -0.37900
N738        N  0.65688502  0.32059428  0.15905693    -0.37900
C739        C  0.91121613  0.39332342  0.99650739    -0.04500
C740        C  0.87391157  0.39425689  0.02743360    -0.01600
C741        C  0.84882473  0.36634013  0.02274774     0.03400
C742        C  0.86144397  0.33569888  0.98943731    -0.04500
C743        C  0.89912789  0.33427875  0.95965955    -0.01600
C744        C  0.92343917  0.36372589  0.96175941     0.03300
C745        C  0.86135674  0.42391696  0.06425603     0.38000
C746        C  0.91361391  0.30173978  0.92811675     0.38000
C747        C  0.96122215  0.36352576  0.92795032     0.36400
C748        C  0.80980319  0.37014386  0.05100748     0.36400
N749        N  0.99133981  0.36322416  0.90105614    -0.38400
N750        N  0.77871450  0.37319091  0.07364488    -0.38400
N751        N  0.92565167  0.27585266  0.90307779    -0.37900
N752        N  0.85132294  0.44760596  0.09356844    -0.37900
C753        C  0.86156911  0.16464744  0.96974976    -0.04500
C754        C  0.85571251  0.13420505  0.01321755    -0.01600
C755        C  0.88237430  0.10256035  0.01489916     0.03400
C756        C  0.91497700  0.10021061  0.97306873    -0.04500
C757        C  0.92011295  0.12901683  0.92846944    -0.01600
C758        C  0.89376828  0.16093883  0.92657681     0.03300
C759        C  0.82169342  0.13411413  0.05574172     0.38000
C760        C  0.95273290  0.12578298  0.88424497     0.38000
C761        C  0.90051565  0.18979986  0.87968627     0.36400
C762        C  0.87645180  0.07228192  0.06022028     0.36400
N763        N  0.90579403  0.21244517  0.84192794    -0.38400
N764        N  0.87188861  0.04794551  0.09611436    -0.38400
N765        N  0.97871766  0.12344761  0.84889361    -0.37900
N766        N  0.79465615  0.13349423  0.08986694    -0.37900
C767        C  0.64791513  0.13890087  0.01735362    -0.04500
C768        C  0.65557770  0.11854783  0.97146960    -0.01600
C769        C  0.62903194  0.09331816  0.96429530     0.03400
C770        C  0.59726287  0.08332565  0.00603392    -0.04500
C771        C  0.59124464  0.10058558  0.05379934    -0.01600
C772        C  0.61500703  0.12989452  0.05830846     0.03300
C773        C  0.69160673  0.12125525  0.93309393     0.38000
C774        C  0.55993704  0.08867201  0.09818793     0.38000
C775        C  0.60437738  0.15149215  0.10467543     0.36400
C776        C  0.63436692  0.07762639  0.91389259     0.36400
N777        N  0.59574792  0.16879257  0.14154921    -0.38400
N778        N  0.63845387  0.06513778  0.87370135    -0.38400
N779        N  0.53498733  0.07914319  0.13350861    -0.37900
N780        N  0.72047076  0.12293935  0.90269318    -0.37900
N781        N  0.55606730  0.98349822  0.01266670    -0.35800
N782        N  0.00685562  0.55029440  0.98738668    -0.56400
N783        N  0.95013929  0.49433977  0.99241192    -0.35800
N784        N  0.50038753  0.92798341  0.01309478    -0.56400
C785        C  0.57986081  0.51373508  0.00204236     0.27800
C786        C  0.57659909  0.94882602  0.01308651     0.27800
C787        C  0.93526436  0.52815433  0.97175973     0.27800
C788        C  0.93282472  0.96339866  0.98250540     0.27800
C789        C  0.53414838  0.57103799  0.99583498     0.36400
C790        C  0.97781479  0.57649762  0.98620807     0.36400
C791        C  0.52483337  0.90212235  0.03073574     0.36400
C792        C  0.96874501  0.90825437  0.02097673     0.36400
C793        C  0.61588405  0.49795194  0.99707744    -0.21100
C794        C  0.61387452  0.95715568  0.00308578    -0.21100
C795        C  0.90799799  0.51872382  0.94875815    -0.21100
C796        C  0.90669813  0.97779998  0.95505816    -0.21100
C797        C  0.52272347  0.61084477  0.99810558    -0.22100
C798        C  0.98697752  0.61415759  0.99272010    -0.22100
C799        C  0.50868920  0.86573505  0.04998544    -0.22100
C800        C  0.97299934  0.86971275  0.04425990    -0.22100
C801        C  0.56964187  0.55503221  0.00024031    -0.17500
C802        C  0.56250542  0.90989978  0.02538021    -0.17500
C803        C  0.93805542  0.92282863  0.00109339    -0.17500
C804        C  0.94378974  0.56732598  0.97669083    -0.17500
H805        H  0.64119747  0.51389106  0.99036280     0.15400
H806        H  0.63719671  0.93605575  0.00164843     0.15400
H807        H  0.89068989  0.53924255  0.92975582     0.15400
H808        H  0.88801253  0.96066604  0.94198008     0.15400
H809        H  0.53837957  0.63515049  0.00325286     0.13700
H810        H  0.96990257  0.64134038  0.99291463     0.13700
H811        H  0.52151876  0.83895642  0.06562093     0.13700
H812        H  0.95293971  0.84644077  0.05427776     0.13700
H813        H  0.52727822  0.98660080  0.02468678     0.27000
H814        H  0.96754072  0.49278959  0.01764212     0.27000
N815        N  0.94270304  0.51588016  0.49722478    -0.35800
N816        N  0.99730945  0.57339514  0.49563371    -0.56400
N817        N  0.55550127  0.01116039  0.48114168    -0.35800
N818        N  0.49951434  0.95343023  0.48596125    -0.56400
C819        C  0.92019889  0.54742960  0.51304706     0.27800
C820        C  0.92140227  0.98353074  0.50925076     0.27800
C821        C  0.57354205  0.54050007  0.49364195     0.27800
C822        C  0.57439605  0.97639053  0.48952560     0.27800
C823        C  0.96817861  0.59864914  0.49207700     0.36400
C824        C  0.52730936  0.59613669  0.48607629     0.36400
C825        C  0.97156445  0.93340711  0.47829897     0.36400
C826        C  0.53090210  0.93072891  0.47122418     0.36400
C827        C  0.88410576  0.53517017  0.53534048    -0.21100
C828        C  0.88490740  0.99466597  0.53334175    -0.21100
C829        C  0.60494930  0.52429626  0.50848623    -0.21100
C830        C  0.60525707  0.98383488  0.50646321    -0.21100
C831        C  0.97959262  0.63758969  0.48054573    -0.22100
C832        C  0.51695430  0.63606691  0.47740056    -0.22100
C833        C  0.98532874  0.89789559  0.45811970    -0.22100
C834        C  0.52294734  0.89604982  0.45406113    -0.22100
C835        C  0.93089474  0.58738163  0.50317255    -0.17500
C836        C  0.93345719  0.94522094  0.49406775    -0.17500
C837        C  0.56536326  0.93838659  0.48019401    -0.17500
C838        C  0.56299614  0.58161774  0.49028829    -0.17500
H839        H  0.85966063  0.55362361  0.55054871     0.15400
H840        H  0.86112879  0.97578600  0.54655724     0.15400
H841        H  0.62550651  0.53987383  0.51987165     0.15400
H842        H  0.62606978  0.96241077  0.51599321     0.15400
H843        H  0.96258652  0.66441717  0.47640006     0.13700
H844        H  0.53420155  0.66164843  0.47042152     0.13700
H845        H  0.96974242  0.87514133  0.44890752     0.13700
H846        H  0.54211408  0.87155422  0.44133882     0.13700
H847        H  0.96962855  0.51747020  0.47276258     0.27000
H848        H  0.53351387  0.01507586  0.46338087     0.27000
O849        O  0.71930186  0.74454246  0.13757671    -0.80100
O850        O  0.72478131  0.74518802  0.90236194    -0.64800
O851        O  0.73957893  0.71301127  0.03967286    -1.11400
C852        C  0.83519789  0.80621948  0.98392264     1.06800
O853        O  0.78498502  0.73881184  0.86540419    -0.78000
O854        O  0.83245232  0.71797164  0.92496767    -0.65600
Ni855      Ni  0.69836055  0.70989768  0.10088345     1.34900
C856        C  0.83470158  0.70014731  0.96936820     0.85600
O857        O  0.69295956  0.68955463  0.98151861    -0.78500
O858        O  0.67532818  0.67369836  0.06979967    -0.88800
C859        C  0.75190515  0.74567232  0.86128353     0.85100
O860        O  0.66767464  0.75393213  0.08044942    -0.67000
O861        O  0.83739066  0.79737611  0.93743280    -0.86300
C862        C  0.66900124  0.77541409  0.03678877     0.86000
C863        C  0.67385524  0.66918820  0.02300004     1.07500
H864        H  0.75662278  0.79277523  0.96489475     0.39300
O865        O  0.76789417  0.76620642  0.96523301    -1.08900
O866        O  0.81558331  0.71180220  0.01308880    -0.65600
Ni867      Ni  0.77595956  0.75158553  0.03381725     1.26300
O868        O  0.69305579  0.76899913  0.99416615    -0.65800
O869        O  0.81170354  0.79137108  0.02533433    -0.78100
C870        C  0.75203900  0.74032134  0.14413399     0.85300
O871        O  0.78001541  0.73704725  0.10477945    -0.65300
Ni872      Ni  0.80946862  0.76724205  0.90466326     1.27400
Ni873      Ni  0.73052632  0.72839087  0.97195057     1.26100
H874        H  0.75167007  0.68670952  0.03868252     0.39900
O875        O  0.70333774  0.77287449  0.63717791    -0.80100
O876        O  0.73035778  0.75345793  0.39404925    -0.64800
O877        O  0.72736263  0.73851147  0.54157457    -1.11400
C878        C  0.82666298  0.82989819  0.48584822     1.06800
O879        O  0.79161141  0.74585238  0.37223844    -0.78000
O880        O  0.83398106  0.74123476  0.44043758    -0.65600
Ni881      Ni  0.68153831  0.74537391  0.59356319     1.34900
C882        C  0.82721101  0.72132257  0.48585581     0.85600
O883        O  0.69126527  0.70639041  0.47730862    -0.78500
O884        O  0.65438433  0.71699011  0.55716330    -0.88800
C885        C  0.76090373  0.74792103  0.35971450     0.85100
O886        O  0.66879907  0.79555581  0.56111075    -0.67000
O887        O  0.82912950  0.82219518  0.43891143    -0.86300
C888        C  0.66802204  0.80575575  0.51349404     0.86000
C889        C  0.66182978  0.70001585  0.51472980     1.08500
H890        H  0.75175355  0.81150145  0.45889349     0.39300
O891        O  0.76308112  0.78524000  0.46343665    -1.08900
O892        O  0.80120826  0.73123801  0.52466164    -0.65600
Ni893      Ni  0.76555529  0.77525248  0.53550199     1.26300
O894        O  0.68739220  0.78739172  0.47529492    -0.65800
O895        O  0.80433542  0.81265924  0.52706775    -0.78100
C896        C  0.73522975  0.76725753  0.64620312     0.85300
O897        O  0.76457149  0.76429501  0.60880796    -0.65300
Ni898      Ni  0.80842563  0.78388825  0.40845355     1.27400
Ni899      Ni  0.72699056  0.74623966  0.46860490     1.26100
H900        H  0.73653312  0.71161718  0.54913693     0.39900
C901        C  0.73771125  0.76435811  0.70203853    -0.04500
C902        C  0.76487596  0.78500133  0.71556172    -0.01600
C903        C  0.76936689  0.77892857  0.76756509     0.03400
C904        C  0.74557066  0.75339773  0.80731323    -0.04500
C905        C  0.71626491  0.73555207  0.79476502    -0.01600
C906        C  0.71280443  0.74034913  0.74225267     0.03300
C907        C  0.78638212  0.81471587  0.67707049     0.38000
C908        C  0.68968579  0.71175534  0.83533173     0.38000
C909        C  0.68398617  0.71952454  0.72964198     0.36400
C910        C  0.79772116  0.80032815  0.78042531     0.36400
N911        N  0.66089166  0.70297149  0.71985863    -0.38400
N912        N  0.82037858  0.81738267  0.79052432    -0.38400
N913        N  0.66760917  0.69338067  0.86714671    -0.37900
N914        N  0.80289906  0.83919403  0.64698798    -0.37900
C915        C  0.76121880  0.74326722  0.30410976    -0.04500
C916        C  0.73825787  0.71572306  0.29332550    -0.01600
C917        C  0.73468590  0.71544401  0.24132697     0.03400
C918        C  0.75699496  0.73993691  0.19860298    -0.04500
C919        C  0.78379413  0.76348826  0.20862082    -0.01600
C920        C  0.78516908  0.76601472  0.26125196     0.03300
C921        C  0.72202571  0.68452233  0.33430160     0.38000
C922        C  0.81001557  0.78531543  0.16521781     0.38000
C923        C  0.81132902  0.79213937  0.27115916     0.36400
C924        C  0.70907783  0.68858675  0.23163146     0.36400
N925        N  0.83234949  0.81271537  0.27912623    -0.38400
N926        N  0.68855261  0.66730747  0.22387023    -0.38400
N927        N  0.83177823  0.80229820  0.13122432    -0.37900
N928        N  0.71031334  0.65860790  0.36623402    -0.37900
C929        C  0.59143830  0.90360506  0.48678281    -0.04500
C930        C  0.62580926  0.89892701  0.44894305    -0.01600
C931        C  0.65126986  0.86748371  0.45760306     0.03400
C932        C  0.64184516  0.83947913  0.50337205    -0.04500
C933        C  0.60659774  0.84365274  0.54032137    -0.01600
C934        C  0.58192608  0.87576606  0.53233488     0.03300
C935        C  0.63472573  0.92639669  0.40084858     0.38000
C936        C  0.59497602  0.81464700  0.58659330     0.38000
C937        C  0.54661914  0.88033043  0.57151977     0.36400
C938        C  0.68771196  0.86527367  0.42051152     0.36400
N939        N  0.51847235  0.88382511  0.60272917    -0.38400
N940        N  0.71683877  0.86386570  0.39093621    -0.38400
N941        N  0.58571317  0.79175138  0.62365912    -0.37900
N942        N  0.64163259  0.94823684  0.36236358    -0.37900
C943        C  0.85169611  0.86066437  0.49150967    -0.04500
C944        C  0.85572585  0.89671993  0.45706571    -0.01600
C945        C  0.88256956  0.92396632  0.45765688     0.03400
C946        C  0.90464009  0.91637843  0.49415525    -0.04500
C947        C  0.89956963  0.88128405  0.53008192    -0.01600
C948        C  0.87405773  0.85301835  0.52770662     0.03300
C949        C  0.83219851  0.90602909  0.42082618     0.38000
C950        C  0.92089677  0.87401887  0.56931099     0.38000
C951        C  0.87289924  0.81502188  0.56014528     0.36400
C952        C  0.88799998  0.95957928  0.41989013     0.36400
N953        N  0.87262338  0.78481480  0.58617343    -0.38400
N954        N  0.89235441  0.98803940  0.38992709    -0.38400
N955        N  0.93779658  0.86801852  0.60072411    -0.37900
N956        N  0.81351525  0.91349314  0.39185328    -0.37900
C957        C  0.85088248  0.68461226  0.49303961    -0.04500
C958        C  0.86069325  0.67287286  0.54151846    -0.01600
C959        C  0.88635144  0.64063551  0.54523213     0.03400
C960        C  0.90156352  0.61929762  0.50137613    -0.04500
C961        C  0.89015897  0.62909236  0.45438789    -0.01600
C962        C  0.86473256  0.66124465  0.45025187     0.03300
C963        C  0.84486800  0.69358986  0.58783981     0.38000
C964        C  0.90540111  0.60644412  0.40963110     0.38000
C965        C  0.85216940  0.66905672  0.40212406     0.36400
C966        C  0.89774109  0.62966885  0.59387501     0.36400
N967        N  0.84246994  0.67469732  0.36347814    -0.38400
N968        N  0.90698414  0.62089866  0.63253934    -0.38400
N969        N  0.91762461  0.58841588  0.37398761    -0.37900
N970        N  0.83214018  0.70919236  0.62560685    -0.37900
C971        C  0.63507151  0.67090103  0.50924004    -0.04500
C972        C  0.61708627  0.64430535  0.55334413    -0.01600
C973        C  0.59317062  0.61573216  0.54712774     0.03400
C974        C  0.58930269  0.61118063  0.49630612    -0.04500
C975        C  0.60747921  0.63732124  0.45228068    -0.01600
C976        C  0.62793945  0.66878046  0.45951321     0.03300
C977        C  0.62292189  0.64598708  0.60537045     0.38000
C978        C  0.60434448  0.63237566  0.39970565     0.38000
C979        C  0.63809591  0.70121818  0.41746784     0.36400
C980        C  0.57215126  0.59115937  0.59320534     0.36400
N981        N  0.64540289  0.72755221  0.38438468    -0.38400
N982        N  0.55526984  0.57161036  0.62986886    -0.38400
N983        N  0.60199884  0.62822556  0.35774937    -0.37900
N984        N  0.62732319  0.64729466  0.64701590    -0.37900
C985        C  0.64111750  0.80952169  0.03475691    -0.04500
C986        C  0.62909032  0.83347897  0.07715322    -0.01600
C987        C  0.60316173  0.86579149  0.07446786     0.03400
C988        C  0.58922187  0.87496984  0.02933037    -0.04500
C989        C  0.60103878  0.85130805  0.98707895    -0.01600
C990        C  0.62665987  0.81885946  0.98965901     0.03300
C991        C  0.64451534  0.82623421  0.12273172     0.38000
C992        C  0.58699218  0.86070178  0.94035866     0.38000
C993        C  0.63743346  0.79500435  0.94559806     0.36400
C994        C  0.59082786  0.88989685  0.11812999     0.36400
N995        N  0.64571905  0.77661177  0.90980173    -0.38400
N996        N  0.58093986  0.90926753  0.15283542    -0.38400
N997        N  0.57580974  0.86814075  0.90311624    -0.37900
N998        N  0.65688517  0.82059416  0.15905682    -0.37900
C999        C  0.91121611  0.89332345  0.99650736    -0.04500
C1000       C  0.87391155  0.89425691  0.02743358    -0.01600
C1001       C  0.84882472  0.86634013  0.02274773     0.03400
C1002       C  0.86144396  0.83569889  0.98943728    -0.04500
C1003       C  0.89912788  0.83427877  0.95965952    -0.01600
C1004       C  0.92343915  0.86372593  0.96175937     0.03300
C1005       C  0.86135672  0.92391701  0.06425600     0.38000
C1006       C  0.91361395  0.80173977  0.92811679     0.38000
C1007       C  0.96122212  0.86352581  0.92795027     0.36400
C1008       C  0.80980319  0.87014381  0.05100750     0.36400
N1009       N  0.99133979  0.86322424  0.90105612    -0.38400
N1010       N  0.77871449  0.87319078  0.07364488    -0.38400
N1011       N  0.92565179  0.77585263  0.90307791    -0.37900
N1012       N  0.85132292  0.94760602  0.09356839    -0.37900
C1013       C  0.86156911  0.66464733  0.96974972    -0.04500
C1014       C  0.85571250  0.63420494  0.01321751    -0.01600
C1015       C  0.88237429  0.60256025  0.01489913     0.03400
C1016       C  0.91497701  0.60021050  0.97306871    -0.04500
C1017       C  0.92011295  0.62901670  0.92846940    -0.01600
C1018       C  0.89376828  0.66093871  0.92657678     0.03300
C1019       C  0.82169342  0.63411407  0.05574169     0.38000
C1020       C  0.95273296  0.62578286  0.88424498     0.38000
C1021       C  0.90051568  0.68979978  0.87968628     0.36400
C1022       C  0.87645180  0.57228186  0.06022031     0.36400
N1023       N  0.90579406  0.71244516  0.84192803    -0.38400
N1024       N  0.87188857  0.54794552  0.09611447    -0.38400
N1025       N  0.97871778  0.62344747  0.84889373    -0.37900
N1026       N  0.79465615  0.63349424  0.08986691    -0.37900
C1027       C  0.64791512  0.63890087  0.01735364    -0.04500
C1028       C  0.65557772  0.61854784  0.97146962    -0.01600
C1029       C  0.62903197  0.59331814  0.96429533     0.03400
C1030       C  0.59726290  0.58332564  0.00603393    -0.04500
C1031       C  0.59124465  0.60058556  0.05379936    -0.01600
C1032       C  0.61500703  0.62989451  0.05830848     0.03300
C1033       C  0.69160674  0.62125529  0.93309392     0.38000
C1034       C  0.55993703  0.58867202  0.09818792     0.38000
C1035       C  0.60437737  0.65149214  0.10467544     0.36400
C1036       C  0.63436696  0.57762630  0.91389267     0.36400
N1037       N  0.59574790  0.66879257  0.14154921    -0.38400
N1038       N  0.63845382  0.56513759  0.87370152    -0.38400
N1039       N  0.53498732  0.57914320  0.13350859    -0.37900
N1040       N  0.72047075  0.62293945  0.90269313    -0.37900
loop_ 
_geom_bond_atom_site_label_1 
_geom_bond_atom_site_label_2 
_geom_bond_distance 
_geom_bond_site_symmetry_2 
_ccdc_geom_bond_type 
N1            C6   1.357       .  A
N1          C265   1.353       .  A
N1           H33   1.036       .  S
N2           C10   1.356       .  A
N2          C529   1.353       .  A
N3            C7   1.353   1_565  A
N3          C268   1.353       .  A
N3           H34   1.039   1_556  S
N4           C11   1.351       .  A
N4          C532   1.349   1_455  A
C5          N261   1.353   1_545  A
C5           C13   1.389   1_544  A
C5           C21   1.422       .  A
C6           C22   1.419       .  A
C6           C14   1.385       .  A
C7           C15   1.385       .  A
C7           C24   1.413       .  A
C8          N263   1.353       .  A
C8           C23   1.417   1_556  A
C8           C16   1.388       .  A
C9          N522   1.353       .  A
C9           C21   1.422   1_556  A
C9           C17   1.389       .  A
C10          C24   1.417       .  A
C10          C18   1.384       .  A
C11          C19   1.385       .  A
C11          C22   1.412       .  A
C12         N524   1.349       .  A
C12          C20   1.388       .  A
C12          C23   1.414       .  A
C13         C274   1.375   1_556  A
C13          H25   1.081   1_565  S
C14         C273   1.375   1_554  A
C14          H26   1.082       .  S
C15         C276   1.377   1_545  A
C15          H27   1.082       .  S
C16         C275   1.377       .  A
C16          H28   1.082       .  S
C17         C538   1.372   1_455  A
C17          H29   1.082   1_556  S
C18         C537   1.372       .  A
C18          H30   1.082       .  S
C19         C540   1.373   1_455  A
C19          H31   1.082       .  S
C20         C539   1.373       .  A
C20          H32   1.082       .  S
C21         C250   1.501       .  S
C22         C208   1.504       .  S
C23         C219   1.497   1_554  S
C24         C236   1.505       .  S
N35          C39   1.350       .  A
N35         C300   1.351   1_545  A
N35          H67   1.039       .  S
N36          C43   1.351       .  A
N36         C564   1.350       .  A
N37          C42   1.354       .  A
N37         C301   1.355       .  A
N37          H68   1.039       .  S
N38          C46   1.349   1_655  A
N38         C565   1.351       .  A
C39          C47   1.386       .  A
C39          C55   1.409       .  A
C40         N295   1.351       .  A
C40          C56   1.414       .  A
C40          C48   1.387       .  A
C41         N297   1.355       .  A
C41          C49   1.387       .  A
C41          C58   1.419       .  A
C42          C57   1.418       .  A
C42          C50   1.387       .  A
C43          C55   1.410       .  A
C43          C51   1.385       .  A
C44         N556   1.350   1_455  A
C44          C58   1.413       .  A
C44          C52   1.388       .  A
C45         N558   1.351       .  A
C45          C53   1.386       .  A
C45          C56   1.414       .  A
C46          C54   1.386       .  A
C46          C57   1.411       .  A
C47         C308   1.376   1_545  A
C47          H59   1.082       .  S
C48         C307   1.376       .  A
C48          H60   1.082       .  S
C49         C310   1.376   1_545  A
C49          H61   1.082       .  S
C50         C309   1.376       .  A
C50          H62   1.082       .  S
C51         C572   1.370       .  A
C51          H63   1.082       .  S
C52         C571   1.370   1_455  A
C52          H64   1.081       .  S
C53         C574   1.375       .  A
C53          H65   1.082       .  S
C54         C573   1.375   1_455  A
C54          H66   1.082       .  S
C55         C180   1.489       .  S
C56         C166   1.498       .  S
C57         C149   1.498       .  S
C58         C194   1.497       .  S
O69         Ni75   1.930       .  S
O69          C90   1.272       .  A
O70         Ni93   1.912       .  S
O70          C79   1.268       .  A
O71         Ni75   1.906       .  S
O71         Ni93   1.904   1_554  S
O71         Ni87   1.909       .  S
O71          H94   0.970       .  S
C72         C222   1.489       .  S
C72          O89   1.274   1_556  A
C72          O81   1.277       .  A
O73         Ni92   1.922       .  S
O73          C79   1.269       .  A
O74         Ni92   1.904       .  S
O74          C76   1.267       .  A
Ni75         O78   1.917       .  S
Ni75         O80   1.927       .  S
C76         C233   1.512       .  S
C76          O86   1.276   1_556  A
O77         Ni93   1.931       .  S
O77          C83   1.281   1_556  A
O78          C83   1.276       .  A
C79         C124   1.490       .  S
O80          C82   1.272       .  A
O81         Ni92   1.925       .  S
C82         C205   1.505       .  S
C82          O88   1.269   1_554  A
C83         C247   1.502       .  S
H84          O85   0.966       .  S
O85         Ni93   1.913       .  S
O85         Ni87   1.908   1_556  S
O85         Ni92   1.904       .  S
O86         Ni87   1.943       .  S
Ni87         O91   1.914       .  S
Ni87         O89   1.909       .  S
O88         Ni93   1.920       .  S
C90         C138   1.492       .  S
C90          O91   1.270       .  A
O95        Ni101   1.926       .  S
O95         C116   1.270       .  A
O96        Ni119   1.919       .  S
O96         C105   1.271       .  A
O97        Ni101   1.904       .  S
O97        Ni119   1.910       .  S
O97        Ni113   1.915       .  S
O97         H120   0.966       .  S
C98         C163   1.490       .  S
C98         O115   1.280       .  A
C98         O107   1.273       .  A
O99        Ni118   1.922       .  S
O99         C105   1.267       .  A
O100       Ni118   1.906       .  S
O100        C102   1.268       .  A
Ni101       O104   1.934       .  S
Ni101       O106   1.893       .  S
C102        C177   1.496       .  S
C102        O112   1.269       .  A
O103       Ni119   1.910       .  S
O103        C109   1.275       .  A
O104        C109   1.277       .  A
C105        C135   1.489       .  S
O106        C108   1.265       .  A
O107       Ni118   1.909       .  S
C108        C152   1.495       .  S
C108        O114   1.276       .  A
C109        C191   1.494       .  S
H110        O111   0.965       .  S
O111       Ni119   1.915       .  S
O111       Ni113   1.911       .  S
O111       Ni118   1.913       .  S
O112       Ni113   1.924       .  S
Ni113       O117   1.910       .  S
Ni113       O115   1.936       .  S
O114       Ni119   1.947       .  S
C116        C121   1.488       .  S
C116        O117   1.270       .  A
C121        C122   1.410       .  A
C121        C126   1.417       .  A
C122        C123   1.411       .  A
C122        C127   1.450       .  S
C123        C124   1.419       .  A
C123        C130   1.452       .  S
C124        C125   1.413       .  A
C125        C126   1.411       .  A
C125        C128   1.450       .  S
C126        C129   1.452       .  S
C127        N134   1.157       .  T
C128        N133   1.157       .  T
C129        N131   1.157       .  T
C130        N132   1.157       .  T
C135        C136   1.409       .  A
C135        C140   1.415       .  A
C136        C137   1.411       .  A
C136        C141   1.449       .  S
C137        C138   1.417       .  A
C137        C144   1.451       .  S
C138        C139   1.415       .  A
C139        C140   1.413       .  A
C139        C142   1.449       .  S
C140        C143   1.452       .  S
C141        N148   1.157       .  T
C142        N147   1.157       .  T
C143        N145   1.158       .  T
C144        N146   1.157       .  T
C149        C150   1.411       .  A
C149        C154   1.410       .  A
C150        C151   1.415       .  A
C150        C155   1.450       .  S
C151        C152   1.417       .  A
C151        C158   1.450       .  S
C152        C153   1.422       .  A
C153        C154   1.407       .  A
C153        C156   1.454       .  S
C154        C157   1.453       .  S
C155        N162   1.157       .  T
C156        N161   1.158       .  T
C157        N159   1.157       .  T
C158        N160   1.157       .  T
C163        C164   1.418       .  A
C163        C168   1.414       .  A
C164        C165   1.410       .  A
C164        C169   1.452       .  S
C165        C166   1.412       .  A
C165        C172   1.452       .  S
C166        C167   1.413       .  A
C167        C168   1.411       .  A
C167        C170   1.450       .  S
C168        C171   1.448       .  S
C169        N176   1.157       .  T
C170        N175   1.157       .  T
C171        N173   1.156       .  T
C172        N174   1.157       .  T
C177        C178   1.422       .  A
C177        C182   1.421       .  A
C178        C179   1.412       .  A
C178        C183   1.450       .  S
C179        C180   1.408       .  A
C179        C186   1.451       .  S
C180        C181   1.406       .  A
C181        C182   1.407       .  A
C181        C184   1.453       .  S
C182        C185   1.452       .  S
C183        N190   1.157       .  T
C184        N189   1.157       .  T
C185        N187   1.157       .  T
C186        N188   1.157       .  T
C191        C192   1.419       .  A
C191        C196   1.414       .  A
C192        C193   1.411       .  A
C192        C197   1.451       .  S
C193        C194   1.411       .  A
C193        C200   1.452       .  S
C194        C195   1.412       .  A
C195        C196   1.410       .  A
C195        C198   1.451       .  S
C196        C199   1.450       .  S
C197        N204   1.157       .  T
C198        N203   1.157       .  T
C199        N201   1.158       .  T
C200        N202   1.157       .  T
C205        C206   1.420       .  A
C205        C210   1.422   1_554  A
C206        C207   1.417       .  A
C206        C211   1.450       .  S
C207        C208   1.411       .  A
C207        C214   1.450       .  S
C208        C209   1.410   1_554  A
C209        C210   1.413       .  A
C209        C212   1.452       .  S
C210        C213   1.450       .  S
C211        N218   1.157       .  T
C212        N217   1.157       .  T
C213        N215   1.156       .  T
C214        N216   1.157       .  T
C219        C220   1.412   1_556  A
C219        C224   1.412       .  A
C220        C221   1.411       .  A
C220        C225   1.451       .  S
C221        C222   1.417   1_554  A
C221        C228   1.452       .  S
C222        C223   1.415       .  A
C223        C224   1.407       .  A
C223        C226   1.451       .  S
C224        C227   1.452       .  S
C225        N232   1.157       .  T
C226        N231   1.157       .  T
C227        N229   1.157       .  T
C228        N230   1.158       .  T
C233        C234   1.422   1_556  A
C233        C238   1.428       .  A
C234        C235   1.415       .  A
C234        C239   1.451       .  S
C235        C236   1.412   1_554  A
C235        C242   1.452       .  S
C236        C237   1.409       .  A
C237        C238   1.415       .  A
C237        C240   1.452       .  S
C238        C241   1.452       .  S
C239        N246   1.158       .  T
C240        N245   1.157       .  T
C241        N243   1.158       .  T
C242        N244   1.157       .  T
C247        C248   1.419   1_554  A
C247        C252   1.423       .  A
C248        C249   1.413       .  A
C248        C253   1.451       .  S
C249        C250   1.412   1_556  A
C249        C256   1.451       .  S
C250        C251   1.411       .  A
C251        C252   1.409       .  A
C251        C254   1.453       .  S
C252        C255   1.452       .  S
C253        N260   1.158       .  T
C254        N259   1.157       .  T
C255        N257   1.158       .  T
C256        N258   1.157       .  T
N261        C266   1.357       .  A
N261        H293   1.036       .  S
N262        C789   1.353       .  A
N262        C270   1.356       .  A
N263        C267   1.353       .  A
N263        H294   1.039   1_556  S
N264        C271   1.351       .  A
N264        C792   1.349   1_455  A
C265        C273   1.389   1_554  A
C265        C281   1.422       .  A
C266        C282   1.419       .  A
C266        C274   1.385       .  A
C267        C275   1.385       .  A
C267        C284   1.413       .  A
C268        C283   1.417   1_556  A
C268        C276   1.388       .  A
C269        N782   1.353       .  A
C269        C281   1.422   1_556  A
C269        C277   1.389       .  A
C270        C284   1.417       .  A
C270        C278   1.384       .  A
C271        C279   1.385       .  A
C271        C282   1.412       .  A
C272        N784   1.349       .  A
C272        C280   1.388       .  A
C272        C283   1.414       .  A
C273        H285   1.081       .  S
C274        H286   1.082       .  S
C275        H287   1.082       .  S
C276        H288   1.082       .  S
C277        C798   1.372   1_455  A
C277        H289   1.082   1_556  S
C278        C797   1.372       .  A
C278        H290   1.082       .  S
C279        C800   1.373   1_455  A
C279        H291   1.082       .  S
C280        C799   1.373       .  A
C280        H292   1.082       .  S
C281        C510   1.501       .  S
C282        C468   1.504       .  S
C283        C479   1.497   1_554  S
C284        C496   1.505       .  S
N295        C299   1.350       .  A
N295        H327   1.039       .  S
N296        C303   1.351       .  A
N296        C824   1.350       .  A
N297        C302   1.354   1_545  A
N297        H328   1.039       .  S
N298        C825   1.351       .  A
N298        C306   1.349   1_655  A
C299        C307   1.386       .  A
C299        C315   1.409       .  A
C300        C316   1.414       .  A
C300        C308   1.387       .  A
C301        C309   1.387       .  A
C301        C318   1.419       .  A
C302        C317   1.418       .  A
C302        C310   1.387       .  A
C303        C315   1.410       .  A
C303        C311   1.385       .  A
C304        N816   1.350   1_455  A
C304        C318   1.413       .  A
C304        C312   1.388       .  A
C305        N818   1.351       .  A
C305        C313   1.386       .  A
C305        C316   1.414       .  A
C306        C314   1.386       .  A
C306        C317   1.411       .  A
C307        H319   1.082       .  S
C308        H320   1.082       .  S
C309        H321   1.082       .  S
C310        H322   1.082       .  S
C311        C832   1.370       .  A
C311        H323   1.082       .  S
C312        C831   1.370   1_455  A
C312        H324   1.081       .  S
C313        C834   1.375       .  A
C313        H325   1.082       .  S
C314        C833   1.375   1_455  A
C314        H326   1.082       .  S
C315        C440   1.489       .  S
C316        C426   1.498       .  S
C317        C409   1.498       .  S
C318        C454   1.497       .  S
O329       Ni335   1.930       .  S
O329        C350   1.272       .  A
O330       Ni353   1.912       .  S
O330        C339   1.268       .  A
O331       Ni335   1.906       .  S
O331       Ni353   1.904   1_554  S
O331       Ni347   1.909       .  S
O331        H354   0.970       .  S
C332        C482   1.489       .  S
C332        O349   1.274   1_556  A
C332        O341   1.277       .  A
O333       Ni352   1.922       .  S
O333        C339   1.269       .  A
O334       Ni352   1.904       .  S
O334        C336   1.267       .  A
Ni335       O338   1.917       .  S
Ni335       O340   1.927       .  S
C336        C493   1.512       .  S
C336        O346   1.276   1_556  A
O337       Ni353   1.931       .  S
O337        C343   1.281   1_556  A
O338        C343   1.276       .  A
C339        C384   1.490       .  S
O340        C342   1.272       .  A
O341       Ni352   1.925       .  S
C342        C465   1.505       .  S
C342        O348   1.269   1_554  A
C343        C507   1.502       .  S
H344        O345   0.966       .  S
O345       Ni353   1.913       .  S
O345       Ni347   1.908   1_556  S
O345       Ni352   1.904       .  S
O346       Ni347   1.943       .  S
Ni347       O351   1.914       .  S
Ni347       O349   1.909       .  S
O348       Ni353   1.920       .  S
C350        C398   1.492       .  S
C350        O351   1.270       .  A
O355       Ni361   1.926       .  S
O355        C376   1.270       .  A
O356       Ni379   1.919       .  S
O356        C365   1.271       .  A
O357       Ni361   1.904       .  S
O357       Ni379   1.910       .  S
O357       Ni373   1.915       .  S
O357        H380   0.966       .  S
C358        C423   1.490       .  S
C358        O375   1.280       .  A
C358        O367   1.273       .  A
O359       Ni378   1.922       .  S
O359        C365   1.267       .  A
O360       Ni378   1.906       .  S
O360        C362   1.268       .  A
Ni361       O364   1.934       .  S
Ni361       O366   1.893       .  S
C362        C437   1.496       .  S
C362        O372   1.269       .  A
O363       Ni379   1.910       .  S
O363        C369   1.275       .  A
O364        C369   1.277       .  A
C365        C395   1.489       .  S
O366        C368   1.265       .  A
O367       Ni378   1.909       .  S
C368        C412   1.495       .  S
C368        O374   1.276       .  A
C369        C451   1.494       .  S
H370        O371   0.965       .  S
O371       Ni379   1.915       .  S
O371       Ni373   1.911       .  S
O371       Ni378   1.913       .  S
O372       Ni373   1.924       .  S
Ni373       O377   1.910       .  S
Ni373       O375   1.936       .  S
O374       Ni379   1.947       .  S
C376        C381   1.488       .  S
C376        O377   1.270       .  A
C381        C382   1.410       .  A
C381        C386   1.417       .  A
C382        C383   1.411       .  A
C382        C387   1.450       .  S
C383        C384   1.419       .  A
C383        C390   1.452       .  S
C384        C385   1.413       .  A
C385        C386   1.411       .  A
C385        C388   1.450       .  S
C386        C389   1.452       .  S
C387        N394   1.157       .  T
C388        N393   1.157       .  T
C389        N391   1.157       .  T
C390        N392   1.157       .  T
C395        C396   1.409       .  A
C395        C400   1.415       .  A
C396        C397   1.411       .  A
C396        C401   1.449       .  S
C397        C398   1.417       .  A
C397        C404   1.451       .  S
C398        C399   1.415       .  A
C399        C400   1.413       .  A
C399        C402   1.449       .  S
C400        C403   1.452       .  S
C401        N408   1.157       .  T
C402        N407   1.157       .  T
C403        N405   1.158       .  T
C404        N406   1.157       .  T
C409        C410   1.411       .  A
C409        C414   1.410       .  A
C410        C411   1.415       .  A
C410        C415   1.450       .  S
C411        C412   1.417       .  A
C411        C418   1.450       .  S
C412        C413   1.422       .  A
C413        C414   1.407       .  A
C413        C416   1.454       .  S
C414        C417   1.453       .  S
C415        N422   1.157       .  T
C416        N421   1.158       .  T
C417        N419   1.157       .  T
C418        N420   1.157       .  T
C423        C424   1.418       .  A
C423        C428   1.414       .  A
C424        C425   1.410       .  A
C424        C429   1.452       .  S
C425        C426   1.412       .  A
C425        C432   1.452       .  S
C426        C427   1.413       .  A
C427        C428   1.411       .  A
C427        C430   1.450       .  S
C428        C431   1.448       .  S
C429        N436   1.157       .  T
C430        N435   1.157       .  T
C431        N433   1.156       .  T
C432        N434   1.157       .  T
C437        C438   1.422       .  A
C437        C442   1.421       .  A
C438        C439   1.412       .  A
C438        C443   1.450       .  S
C439        C440   1.408       .  A
C439        C446   1.451       .  S
C440        C441   1.406       .  A
C441        C442   1.407       .  A
C441        C444   1.453       .  S
C442        C445   1.452       .  S
C443        N450   1.157       .  T
C444        N449   1.157       .  T
C445        N447   1.157       .  T
C446        N448   1.157       .  T
C451        C452   1.419       .  A
C451        C456   1.414       .  A
C452        C453   1.411       .  A
C452        C457   1.451       .  S
C453        C454   1.411       .  A
C453        C460   1.452       .  S
C454        C455   1.412       .  A
C455        C456   1.410       .  A
C455        C458   1.451       .  S
C456        C459   1.450       .  S
C457        N464   1.157       .  T
C458        N463   1.157       .  T
C459        N461   1.158       .  T
C460        N462   1.157       .  T
C465        C466   1.420       .  A
C465        C470   1.422   1_554  A
C466        C467   1.417       .  A
C466        C471   1.450       .  S
C467        C468   1.411       .  A
C467        C474   1.450       .  S
C468        C469   1.410   1_554  A
C469        C470   1.413       .  A
C469        C472   1.452       .  S
C470        C473   1.450       .  S
C471        N478   1.157       .  T
C472        N477   1.157       .  T
C473        N475   1.156       .  T
C474        N476   1.157       .  T
C479        C480   1.412   1_556  A
C479        C484   1.412       .  A
C480        C481   1.411       .  A
C480        C485   1.451       .  S
C481        C482   1.417   1_554  A
C481        C488   1.452       .  S
C482        C483   1.415       .  A
C483        C484   1.407       .  A
C483        C486   1.451       .  S
C484        C487   1.452       .  S
C485        N492   1.157       .  T
C486        N491   1.157       .  T
C487        N489   1.157       .  T
C488        N490   1.158       .  T
C493        C494   1.422   1_556  A
C493        C498   1.428       .  A
C494        C495   1.415       .  A
C494        C499   1.451       .  S
C495        C496   1.412   1_554  A
C495        C502   1.452       .  S
C496        C497   1.409       .  A
C497        C498   1.415       .  A
C497        C500   1.452       .  S
C498        C501   1.452       .  S
C499        N506   1.158       .  T
C500        N505   1.157       .  T
C501        N503   1.158       .  T
C502        N504   1.157       .  T
C507        C508   1.419   1_554  A
C507        C512   1.423       .  A
C508        C509   1.413       .  A
C508        C513   1.451       .  S
C509        C510   1.412   1_556  A
C509        C516   1.451       .  S
C510        C511   1.411       .  A
C511        C512   1.409       .  A
C511        C514   1.453       .  S
C512        C515   1.452       .  S
C513        N520   1.158       .  T
C514        N519   1.157       .  T
C515        N517   1.158       .  T
C516        N518   1.157       .  T
N521        C526   1.357       .  A
N521        C785   1.353       .  A
N521        H553   1.036       .  S
N522        C530   1.356   1_455  A
N523        C788   1.353       .  A
N523        C527   1.353   1_565  A
N523        H554   1.039   1_556  S
N524        C531   1.351       .  A
C525        N781   1.353   1_545  A
C525        C533   1.389   1_544  A
C525        C541   1.422       .  A
C526        C542   1.419       .  A
C526        C534   1.385       .  A
C527        C535   1.385       .  A
C527        C544   1.413       .  A
C528        N783   1.353       .  A
C528        C543   1.417   1_556  A
C528        C536   1.388       .  A
C529        C541   1.422   1_556  A
C529        C537   1.389       .  A
C530        C544   1.417       .  A
C530        C538   1.384       .  A
C531        C539   1.385       .  A
C531        C542   1.412       .  A
C532        C540   1.388       .  A
C532        C543   1.414       .  A
C533        C794   1.375   1_556  A
C533        H545   1.081   1_565  S
C534        C793   1.375   1_554  A
C534        H546   1.082       .  S
C535        C796   1.377   1_545  A
C535        H547   1.082       .  S
C536        C795   1.377       .  A
C536        H548   1.082       .  S
C537        H549   1.082   1_556  S
C538        H550   1.082       .  S
C539        H551   1.082       .  S
C540        H552   1.082       .  S
C541        C770   1.501       .  S
C542        C728   1.504       .  S
C543        C739   1.497   1_554  S
C544        C756   1.505       .  S
N555        C820   1.351   1_545  A
N555        C559   1.350       .  A
N555        H587   1.039       .  S
N556        C563   1.351       .  A
N557        C562   1.354       .  A
N557        C821   1.355       .  A
N557        H588   1.039       .  S
N558        C566   1.349       .  A
C559        C567   1.386       .  A
C559        C575   1.409       .  A
C560        N815   1.351       .  A
C560        C576   1.414       .  A
C560        C568   1.387       .  A
C561        N817   1.355       .  A
C561        C569   1.387       .  A
C561        C578   1.419       .  A
C562        C577   1.418       .  A
C562        C570   1.387       .  A
C563        C575   1.410       .  A
C563        C571   1.385       .  A
C564        C578   1.413       .  A
C564        C572   1.388       .  A
C565        C573   1.386       .  A
C565        C576   1.414       .  A
C566        C574   1.386       .  A
C566        C577   1.411       .  A
C567        C828   1.376   1_545  A
C567        H579   1.082       .  S
C568        C827   1.376       .  A
C568        H580   1.082       .  S
C569        C830   1.376   1_545  A
C569        H581   1.082       .  S
C570        C829   1.376       .  A
C570        H582   1.082       .  S
C571        H583   1.082       .  S
C572        H584   1.081       .  S
C573        H585   1.082       .  S
C574        H586   1.082       .  S
C575        C700   1.489       .  S
C576        C686   1.498       .  S
C577        C669   1.498       .  S
C578        C714   1.497       .  S
O589       Ni595   1.930       .  S
O589        C610   1.272       .  A
O590       Ni613   1.912       .  S
O590        C599   1.268       .  A
O591       Ni595   1.906       .  S
O591       Ni613   1.904   1_554  S
O591       Ni607   1.909       .  S
O591        H614   0.970       .  S
C592        C742   1.489       .  S
C592        O609   1.274   1_556  A
C592        O601   1.277       .  A
O593       Ni612   1.922       .  S
O593        C599   1.269       .  A
O594       Ni612   1.904       .  S
O594        C596   1.267       .  A
Ni595       O598   1.917       .  S
Ni595       O600   1.927       .  S
C596        C753   1.512       .  S
C596        O606   1.276   1_556  A
O597       Ni613   1.931       .  S
O597        C603   1.281   1_556  A
O598        C603   1.276       .  A
C599        C644   1.490       .  S
O600        C602   1.272       .  A
O601       Ni612   1.925       .  S
C602        C725   1.505       .  S
C602        O608   1.269   1_554  A
C603        C767   1.502       .  S
H604        O605   0.966       .  S
O605       Ni613   1.913       .  S
O605       Ni607   1.908   1_556  S
O605       Ni612   1.904       .  S
O606       Ni607   1.943       .  S
Ni607       O611   1.914       .  S
Ni607       O609   1.909       .  S
O608       Ni613   1.920       .  S
C610        C658   1.492       .  S
C610        O611   1.270       .  A
O615       Ni621   1.926       .  S
O615        C636   1.270       .  A
O616       Ni639   1.919       .  S
O616        C625   1.271       .  A
O617       Ni621   1.904       .  S
O617       Ni639   1.910       .  S
O617       Ni633   1.915       .  S
O617        H640   0.966       .  S
C618        C683   1.490       .  S
C618        O635   1.280       .  A
C618        O627   1.273       .  A
O619       Ni638   1.922       .  S
O619        C625   1.267       .  A
O620       Ni638   1.906       .  S
O620        C622   1.268       .  A
Ni621       O624   1.934       .  S
Ni621       O626   1.893       .  S
C622        C697   1.496       .  S
C622        O632   1.269       .  A
O623       Ni639   1.910       .  S
O623        C629   1.275       .  A
O624        C629   1.277       .  A
C625        C655   1.489       .  S
O626        C628   1.265       .  A
O627       Ni638   1.909       .  S
C628        C672   1.495       .  S
C628        O634   1.276       .  A
C629        C711   1.494       .  S
H630        O631   0.965       .  S
O631       Ni639   1.915       .  S
O631       Ni633   1.911       .  S
O631       Ni638   1.913       .  S
O632       Ni633   1.924       .  S
Ni633       O637   1.910       .  S
Ni633       O635   1.936       .  S
O634       Ni639   1.947       .  S
C636        C641   1.488       .  S
C636        O637   1.270       .  A
C641        C642   1.410       .  A
C641        C646   1.417       .  A
C642        C643   1.411       .  A
C642        C647   1.450       .  S
C643        C644   1.419       .  A
C643        C650   1.452       .  S
C644        C645   1.413       .  A
C645        C646   1.411       .  A
C645        C648   1.450       .  S
C646        C649   1.452       .  S
C647        N654   1.157       .  T
C648        N653   1.157       .  T
C649        N651   1.157       .  T
C650        N652   1.157       .  T
C655        C656   1.409       .  A
C655        C660   1.415       .  A
C656        C657   1.411       .  A
C656        C661   1.449       .  S
C657        C658   1.417       .  A
C657        C664   1.451       .  S
C658        C659   1.415       .  A
C659        C660   1.413       .  A
C659        C662   1.449       .  S
C660        C663   1.452       .  S
C661        N668   1.157       .  T
C662        N667   1.157       .  T
C663        N665   1.158       .  T
C664        N666   1.157       .  T
C669        C670   1.411       .  A
C669        C674   1.410       .  A
C670        C671   1.415       .  A
C670        C675   1.450       .  S
C671        C672   1.417       .  A
C671        C678   1.450       .  S
C672        C673   1.422       .  A
C673        C674   1.407       .  A
C673        C676   1.454       .  S
C674        C677   1.453       .  S
C675        N682   1.157       .  T
C676        N681   1.158       .  T
C677        N679   1.157       .  T
C678        N680   1.157       .  T
C683        C684   1.418       .  A
C683        C688   1.414       .  A
C684        C685   1.410       .  A
C684        C689   1.452       .  S
C685        C686   1.412       .  A
C685        C692   1.452       .  S
C686        C687   1.413       .  A
C687        C688   1.411       .  A
C687        C690   1.450       .  S
C688        C691   1.448       .  S
C689        N696   1.157       .  T
C690        N695   1.157       .  T
C691        N693   1.156       .  T
C692        N694   1.157       .  T
C697        C698   1.422       .  A
C697        C702   1.421       .  A
C698        C699   1.412       .  A
C698        C703   1.450       .  S
C699        C700   1.408       .  A
C699        C706   1.451       .  S
C700        C701   1.406       .  A
C701        C702   1.407       .  A
C701        C704   1.453       .  S
C702        C705   1.452       .  S
C703        N710   1.157       .  T
C704        N709   1.157       .  T
C705        N707   1.157       .  T
C706        N708   1.157       .  T
C711        C712   1.419       .  A
C711        C716   1.414       .  A
C712        C713   1.411       .  A
C712        C717   1.451       .  S
C713        C714   1.411       .  A
C713        C720   1.452       .  S
C714        C715   1.412       .  A
C715        C716   1.410       .  A
C715        C718   1.451       .  S
C716        C719   1.450       .  S
C717        N724   1.157       .  T
C718        N723   1.157       .  T
C719        N721   1.158       .  T
C720        N722   1.157       .  T
C725        C726   1.420       .  A
C725        C730   1.422   1_554  A
C726        C727   1.417       .  A
C726        C731   1.450       .  S
C727        C728   1.411       .  A
C727        C734   1.450       .  S
C728        C729   1.410   1_554  A
C729        C730   1.413       .  A
C729        C732   1.452       .  S
C730        C733   1.450       .  S
C731        N738   1.157       .  T
C732        N737   1.157       .  T
C733        N735   1.156       .  T
C734        N736   1.157       .  T
C739        C740   1.412   1_556  A
C739        C744   1.412       .  A
C740        C741   1.411       .  A
C740        C745   1.451       .  S
C741        C742   1.417   1_554  A
C741        C748   1.452       .  S
C742        C743   1.415       .  A
C743        C744   1.407       .  A
C743        C746   1.451       .  S
C744        C747   1.452       .  S
C745        N752   1.157       .  T
C746        N751   1.157       .  T
C747        N749   1.157       .  T
C748        N750   1.158       .  T
C753        C754   1.422   1_556  A
C753        C758   1.428       .  A
C754        C755   1.415       .  A
C754        C759   1.451       .  S
C755        C756   1.412   1_554  A
C755        C762   1.452       .  S
C756        C757   1.409       .  A
C757        C758   1.415       .  A
C757        C760   1.452       .  S
C758        C761   1.452       .  S
C759        N766   1.158       .  T
C760        N765   1.157       .  T
C761        N763   1.158       .  T
C762        N764   1.157       .  T
C767        C768   1.419   1_554  A
C767        C772   1.423       .  A
C768        C769   1.413       .  A
C768        C773   1.451       .  S
C769        C770   1.412   1_556  A
C769        C776   1.451       .  S
C770        C771   1.411       .  A
C771        C772   1.409       .  A
C771        C774   1.453       .  S
C772        C775   1.452       .  S
C773        N780   1.158       .  T
C774        N779   1.157       .  T
C775        N777   1.158       .  T
C776        N778   1.157       .  T
N781        C786   1.357       .  A
N781        H813   1.036       .  S
N782        C790   1.356   1_455  A
N783        C787   1.353       .  A
N783        H814   1.039   1_556  S
N784        C791   1.351       .  A
C785        C793   1.389   1_554  A
C785        C801   1.422       .  A
C786        C802   1.419       .  A
C786        C794   1.385       .  A
C787        C795   1.385       .  A
C787        C804   1.413       .  A
C788        C803   1.417   1_556  A
C788        C796   1.388       .  A
C789        C801   1.422   1_556  A
C789        C797   1.389       .  A
C790        C804   1.417       .  A
C790        C798   1.384       .  A
C791        C799   1.385       .  A
C791        C802   1.412       .  A
C792        C800   1.388       .  A
C792        C803   1.414       .  A
C793        H805   1.081       .  S
C794        H806   1.082       .  S
C795        H807   1.082       .  S
C796        H808   1.082       .  S
C797        H809   1.082   1_556  S
C798        H810   1.082       .  S
C799        H811   1.082       .  S
C800        H812   1.082       .  S
C801       C1030   1.501       .  S
C802        C988   1.504       .  S
C803        C999   1.497   1_554  S
C804       C1016   1.505       .  S
N815        C819   1.350       .  A
N815        H847   1.039       .  S
N816        C823   1.351       .  A
N817        C822   1.354   1_545  A
N817        H848   1.039       .  S
N818        C826   1.349       .  A
C819        C827   1.386       .  A
C819        C835   1.409       .  A
C820        C836   1.414       .  A
C820        C828   1.387       .  A
C821        C829   1.387       .  A
C821        C838   1.419       .  A
C822        C837   1.418       .  A
C822        C830   1.387       .  A
C823        C835   1.410       .  A
C823        C831   1.385       .  A
C824        C838   1.413       .  A
C824        C832   1.388       .  A
C825        C833   1.386       .  A
C825        C836   1.414       .  A
C826        C834   1.386       .  A
C826        C837   1.411       .  A
C827        H839   1.082       .  S
C828        H840   1.082       .  S
C829        H841   1.082       .  S
C830        H842   1.082       .  S
C831        H843   1.082       .  S
C832        H844   1.081       .  S
C833        H845   1.082       .  S
C834        H846   1.082       .  S
C835        C960   1.489       .  S
C836        C946   1.498       .  S
C837        C929   1.498       .  S
C838        C974   1.497       .  S
O849       Ni855   1.930       .  S
O849        C870   1.272       .  A
O850       Ni873   1.912       .  S
O850        C859   1.268       .  A
O851       Ni855   1.906       .  S
O851       Ni873   1.904   1_554  S
O851       Ni867   1.909       .  S
O851        H874   0.970       .  S
C852       C1002   1.489       .  S
C852        O869   1.274   1_556  A
C852        O861   1.277       .  A
O853       Ni872   1.922       .  S
O853        C859   1.269       .  A
O854       Ni872   1.904       .  S
O854        C856   1.267       .  A
Ni855       O858   1.917       .  S
Ni855       O860   1.927       .  S
C856       C1013   1.512       .  S
C856        O866   1.276   1_556  A
O857       Ni873   1.931       .  S
O857        C863   1.281   1_556  A
O858        C863   1.276       .  A
C859        C904   1.490       .  S
O860        C862   1.272       .  A
O861       Ni872   1.925       .  S
C862        C985   1.505       .  S
C862        O868   1.269   1_554  A
C863       C1027   1.502       .  S
H864        O865   0.966       .  S
O865       Ni873   1.913       .  S
O865       Ni867   1.908   1_556  S
O865       Ni872   1.904       .  S
O866       Ni867   1.943       .  S
Ni867       O871   1.914       .  S
Ni867       O869   1.909       .  S
O868       Ni873   1.920       .  S
C870        C918   1.492       .  S
C870        O871   1.270       .  A
O875       Ni881   1.926       .  S
O875        C896   1.270       .  A
O876       Ni899   1.919       .  S
O876        C885   1.271       .  A
O877       Ni881   1.904       .  S
O877       Ni899   1.910       .  S
O877       Ni893   1.915       .  S
O877        H900   0.966       .  S
C878        C943   1.490       .  S
C878        O895   1.280       .  A
C878        O887   1.273       .  A
O879       Ni898   1.922       .  S
O879        C885   1.267       .  A
O880       Ni898   1.906       .  S
O880        C882   1.268       .  A
Ni881       O884   1.934       .  S
Ni881       O886   1.893       .  S
C882        C957   1.496       .  S
C882        O892   1.269       .  A
O883       Ni899   1.910       .  S
O883        C889   1.275       .  A
O884        C889   1.277       .  A
C885        C915   1.489       .  S
O886        C888   1.265       .  A
O887       Ni898   1.909       .  S
C888        C932   1.495       .  S
C888        O894   1.276       .  A
C889        C971   1.494       .  S
H890        O891   0.965       .  S
O891       Ni899   1.915       .  S
O891       Ni893   1.911       .  S
O891       Ni898   1.913       .  S
O892       Ni893   1.924       .  S
Ni893       O897   1.910       .  S
Ni893       O895   1.936       .  S
O894       Ni899   1.947       .  S
C896        C901   1.488       .  S
C896        O897   1.270       .  A
C901        C902   1.410       .  A
C901        C906   1.417       .  A
C902        C903   1.411       .  A
C902        C907   1.450       .  S
C903        C904   1.419       .  A
C903        C910   1.452       .  S
C904        C905   1.413       .  A
C905        C906   1.411       .  A
C905        C908   1.450       .  S
C906        C909   1.452       .  S
C907        N914   1.157       .  T
C908        N913   1.157       .  T
C909        N911   1.157       .  T
C910        N912   1.157       .  T
C915        C916   1.409       .  A
C915        C920   1.415       .  A
C916        C917   1.411       .  A
C916        C921   1.449       .  S
C917        C918   1.417       .  A
C917        C924   1.451       .  S
C918        C919   1.415       .  A
C919        C920   1.413       .  A
C919        C922   1.449       .  S
C920        C923   1.452       .  S
C921        N928   1.157       .  T
C922        N927   1.157       .  T
C923        N925   1.158       .  T
C924        N926   1.157       .  T
C929        C930   1.411       .  A
C929        C934   1.410       .  A
C930        C931   1.415       .  A
C930        C935   1.450       .  S
C931        C932   1.417       .  A
C931        C938   1.450       .  S
C932        C933   1.422       .  A
C933        C934   1.407       .  A
C933        C936   1.454       .  S
C934        C937   1.453       .  S
C935        N942   1.157       .  T
C936        N941   1.158       .  T
C937        N939   1.157       .  T
C938        N940   1.157       .  T
C943        C944   1.418       .  A
C943        C948   1.414       .  A
C944        C945   1.410       .  A
C944        C949   1.452       .  S
C945        C946   1.412       .  A
C945        C952   1.452       .  S
C946        C947   1.413       .  A
C947        C948   1.411       .  A
C947        C950   1.450       .  S
C948        C951   1.448       .  S
C949        N956   1.157       .  T
C950        N955   1.157       .  T
C951        N953   1.156       .  T
C952        N954   1.157       .  T
C957        C958   1.422       .  A
C957        C962   1.421       .  A
C958        C959   1.412       .  A
C958        C963   1.450       .  S
C959        C960   1.408       .  A
C959        C966   1.451       .  S
C960        C961   1.406       .  A
C961        C962   1.407       .  A
C961        C964   1.453       .  S
C962        C965   1.452       .  S
C963        N970   1.157       .  T
C964        N969   1.157       .  T
C965        N967   1.157       .  T
C966        N968   1.157       .  T
C971        C972   1.419       .  A
C971        C976   1.414       .  A
C972        C973   1.411       .  A
C972        C977   1.451       .  S
C973        C974   1.411       .  A
C973        C980   1.452       .  S
C974        C975   1.412       .  A
C975        C976   1.410       .  A
C975        C978   1.451       .  S
C976        C979   1.450       .  S
C977        N984   1.157       .  T
C978        N983   1.157       .  T
C979        N981   1.158       .  T
C980        N982   1.157       .  T
C985        C986   1.420       .  A
C985        C990   1.422   1_554  A
C986        C987   1.417       .  A
C986        C991   1.450       .  S
C987        C988   1.411       .  A
C987        C994   1.450       .  S
C988        C989   1.410   1_554  A
C989        C990   1.413       .  A
C989        C992   1.452       .  S
C990        C993   1.450       .  S
C991        N998   1.157       .  T
C992        N997   1.157       .  T
C993        N995   1.156       .  T
C994        N996   1.157       .  T
C999       C1000   1.412   1_556  A
C999       C1004   1.412       .  A
C1000      C1001   1.411       .  A
C1000      C1005   1.451       .  S
C1001      C1002   1.417   1_554  A
C1001      C1008   1.452       .  S
C1002      C1003   1.415       .  A
C1003      C1004   1.407       .  A
C1003      C1006   1.451       .  S
C1004      C1007   1.452       .  S
C1005      N1012   1.157       .  T
C1006      N1011   1.157       .  T
C1007      N1009   1.157       .  T
C1008      N1010   1.158       .  T
C1013      C1014   1.422   1_556  A
C1013      C1018   1.428       .  A
C1014      C1015   1.415       .  A
C1014      C1019   1.451       .  S
C1015      C1016   1.412   1_554  A
C1015      C1022   1.452       .  S
C1016      C1017   1.409       .  A
C1017      C1018   1.415       .  A
C1017      C1020   1.452       .  S
C1018      C1021   1.452       .  S
C1019      N1026   1.158       .  T
C1020      N1025   1.157       .  T
C1021      N1023   1.158       .  T
C1022      N1024   1.157       .  T
C1027      C1028   1.419   1_554  A
C1027      C1032   1.423       .  A
C1028      C1029   1.413       .  A
C1028      C1033   1.451       .  S
C1029      C1030   1.412   1_556  A
C1029      C1036   1.451       .  S
C1030      C1031   1.411       .  A
C1031      C1032   1.409       .  A
C1031      C1034   1.453       .  S
C1032      C1035   1.452       .  S
C1033      N1040   1.158       .  T
C1034      N1039   1.157       .  T
C1035      N1037   1.158       .  T
C1036      N1038   1.157       .  T
