geometry optimzed in LAMMPS
_audit_creation_date              2020-11-30 
_audit_creation_method            'lammps2cif' 
_symmetry_space_group_name_H-M    'P1' 
_symmetry_Int_Tables_number       1 
_symmetry_cell_setting            triclinic 
loop_ 
_symmetry_equiv_pos_as_xyz 
  x,y,z 
_cell_length_a                    32.55886664 
_cell_length_b                    36.214419934744626 
_cell_length_c                    32.684028965419444 
_cell_angle_alpha                 89.98386111226759 
_cell_angle_beta                  89.82365623403784 
_cell_angle_gamma                 90.0513334651138 
loop_ 
_atom_site_label 
_atom_site_type_symbol 
_atom_site_fract_x 
_atom_site_fract_y 
_atom_site_fract_z 
_atom_site_charge 
N1          N  0.45025910  0.46421592  0.42706107    -0.06000
N2          N  0.44332539  0.43837601  0.39947935    -0.58100
N3          N  0.42035242  0.54829794  0.45632561    -0.05700
N4          N  0.39283310  0.57430059  0.44912457    -0.60200
N5          N  0.44914997  0.54878360  0.42797909    -0.05300
N6          N  0.44174489  0.57482089  0.40081681    -0.58100
N7          N  0.42182129  0.46330129  0.45570348    -0.04900
N8          N  0.39497484  0.43677461  0.44830347    -0.60600
C9          C  0.40896594  0.42138665  0.41327513     0.96200
C10         C  0.40680144  0.59066902  0.41453654     0.96000
N11         N  0.44777787  0.54805938  0.58082448    -0.06200
N12         N  0.43856600  0.57306985  0.60875943    -0.58700
N13         N  0.42271471  0.46260279  0.55216567    -0.04300
N14         N  0.39622063  0.43585085  0.55971076    -0.59900
N15         N  0.45104120  0.46374127  0.58079361    -0.06200
N16         N  0.44430625  0.43794696  0.60852642    -0.59000
N17         N  0.41907315  0.54674705  0.55264512    -0.03900
N18         N  0.38959810  0.57056842  0.56086049    -0.60000
Mn19       Mn  0.41981738  0.50516984  0.50415003     1.18400
C20         C  0.40236284  0.58691719  0.59567818     0.98300
C21         C  0.41026327  0.42065509  0.59474804     0.98900
N22         N  0.54616048  0.55031505  0.42724773    -0.06200
N23         N  0.55415660  0.57616085  0.39976275    -0.62500
N24         N  0.57546116  0.46526910  0.45578676    -0.05000
N25         N  0.60303111  0.43938997  0.44817610    -0.63200
N26         N  0.54706246  0.46543596  0.42720453    -0.05700
N27         N  0.55477711  0.43985120  0.39951257    -0.62800
N28         N  0.57492546  0.54981538  0.45539205    -0.04600
N29         N  0.60321810  0.57491058  0.44757602    -0.63500
Mn30       Mn  0.49811613  0.50726063  0.42620286     1.10700
C31         C  0.58970151  0.59133040  0.41310771     0.99500
C32         C  0.58953938  0.42370353  0.41311253     0.99600
N33         N  0.54777413  0.46621531  0.58089875    -0.05700
N34         N  0.55610958  0.44068168  0.60849629    -0.61100
N35         N  0.57370552  0.55104291  0.55131685    -0.05100
N36         N  0.60064304  0.57747398  0.55842545    -0.57800
N37         N  0.54464954  0.55125153  0.57940100    -0.06400
N38         N  0.55101728  0.57807514  0.60599725    -0.60700
N39         N  0.57644216  0.46683149  0.55247912    -0.05400
N40         N  0.60517683  0.44220540  0.56035287    -0.57900
Mn41       Mn  0.49788108  0.50738767  0.58168995     1.20200
Mn42       Mn  0.57621553  0.50813550  0.50375528     1.10100
Cl43       Cl  0.49798436  0.50694677  0.50396148    -0.85800
C44         C  0.59186747  0.42594527  0.59510975     0.96500
C45         C  0.58587394  0.59427401  0.59231607     0.96300
N46         N  0.95145508  0.46119585  0.92559066    -0.06000
N47         N  0.94330097  0.43638945  0.89711037    -0.58100
N48         N  0.92202507  0.54428675  0.95567415    -0.05700
N49         N  0.89304005  0.56873341  0.94787468    -0.60200
N50         N  0.95105949  0.54581856  0.92761896    -0.05300
N51         N  0.94260346  0.57161433  0.90035165    -0.58100
N52         N  0.92353034  0.45983399  0.95481544    -0.04900
N53         N  0.89610954  0.43387542  0.94699674    -0.60600
C54         C  0.90898453  0.41937628  0.91106475     0.96200
C55         C  0.90650169  0.58574047  0.91355227     0.96000
N56         N  0.95178738  0.54406690  0.08041651    -0.06200
N57         N  0.94486167  0.57033861  0.10751761    -0.58700
N58         N  0.92364503  0.45920304  0.05204748    -0.04300
N59         N  0.89552838  0.43402776  0.06056070    -0.59900
N60         N  0.95192927  0.45977899  0.08071739    -0.06200
N61         N  0.94347960  0.43531577  0.10947793    -0.59000
N62         N  0.92323882  0.54426420  0.05199644    -0.03900
N63         N  0.89649788  0.57098722  0.05896016    -0.60000
Mn64       Mn  0.92200002  0.50172472  0.00368012     1.18400
C65         C  0.91054948  0.58705307  0.09355816     0.98300
C66         C  0.90847423  0.41928170  0.09627412     0.98900
N67         N  0.04860992  0.54680117  0.92762083    -0.06200
N68         N  0.05627028  0.57359579  0.90122888    -0.62500
N69         N  0.07740076  0.46113685  0.95416667    -0.05000
N70         N  0.10564446  0.43605857  0.94602816    -0.63200
N71         N  0.04941261  0.46191002  0.92519698    -0.05700
N72         N  0.05826134  0.43740919  0.89655802    -0.62800
N73         N  0.07749303  0.54559212  0.95565608    -0.04600
N74         N  0.10546216  0.57130762  0.94885770    -0.63500
Mn75       Mn  0.00014003  0.50401044  0.92530223     1.10700
C76         C  0.09166139  0.58870454  0.91503579     0.99500
C77         C  0.09318209  0.42136142  0.91018418     0.99600
N78         N  0.04866356  0.45927443  0.07949107    -0.05700
N79         N  0.05596608  0.43288699  0.10643381    -0.61100
N80         N  0.07673956  0.54485976  0.05083316    -0.05100
N81         N  0.10308257  0.57203629  0.05688314    -0.57800
N82         N  0.04852384  0.54445885  0.07967718    -0.06400
N83         N  0.05533590  0.57109696  0.10632142    -0.60700
N84         N  0.07712997  0.45943735  0.05082519    -0.05400
N85         N  0.10442067  0.43318881  0.05777448    -0.57900
Mn86       Mn  0.00032838  0.50187243  0.08124754     1.20200
Mn87       Mn  0.07826379  0.50258398  0.00297074     1.10100
Cl88       Cl  0.00011125  0.50238409  0.00321994    -0.85800
C89         C  0.09037827  0.41643861  0.09208306     0.96500
C90         C  0.08918193  0.58818846  0.09148547     0.96300
C91         C  0.74949269  0.25518711  0.74909078    -0.02400
N92         N  0.54327279  0.05045180  0.92432911    -0.06000
N93         N  0.55031849  0.07693957  0.89737550    -0.58100
N94         N  0.57447013  0.96513581  0.94881204    -0.05700
N95         N  0.60213965  0.93951390  0.94073813    -0.60200
N96         N  0.54610630  0.96578922  0.92023459    -0.05300
N97         N  0.55421796  0.94095080  0.89175674    -0.58100
N98         N  0.57198965  0.05026253  0.95257792    -0.04900
N99         N  0.59908758  0.07672006  0.94538429    -0.60600
C100        C  0.58472805  0.09355965  0.91134618     0.96200
C101        C  0.58902692  0.92463233  0.90520041     0.96000
N102        N  0.54691205  0.95916564  0.07342175    -0.06200
N103        N  0.55549429  0.93270010  0.09977269    -0.58700
N104        N  0.57292723  0.04552393  0.04935788    -0.04300
N105        N  0.60055288  0.07082483  0.05855336    -0.59900
N106        N  0.54439157  0.04383694  0.07789264    -0.06200
N107        N  0.55171668  0.06837285  0.10687018    -0.59000
N108        N  0.57567956  0.96142573  0.04516213    -0.03900
N109        N  0.60467770  0.93670237  0.05195453    -0.60000
Mn110      Mn  0.57484201  0.00566488  0.99889663     1.18400
C111        C  0.59117645  0.91863378  0.08561463     0.98300
C112        C  0.58671404  0.08501806  0.09421811     0.98900
N113        N  0.44872024  0.96310971  0.92163803    -0.06200
N114        N  0.44151048  0.93837152  0.89284602    -0.62500
N115        N  0.41795251  0.04578329  0.95426078    -0.05000
N116        N  0.38987267  0.07149117  0.94790767    -0.63200
N117        N  0.44675082  0.04768349  0.92597762    -0.05700
N118        N  0.43913632  0.07477272  0.90012418    -0.62800
N119        N  0.42072154  0.96086057  0.95071857    -0.04600
N120        N  0.39417730  0.93431037  0.94246701    -0.63500
Mn121      Mn  0.49613674  0.00675346  0.92190956     1.10700
C122        C  0.40767333  0.92044321  0.90645466     0.99500
C123        C  0.40378020  0.08948577  0.91426305     0.99600
N124        N  0.44795910  0.04112125  0.07946547    -0.05700
N125        N  0.44122740  0.06632358  0.10785063    -0.61100
N126        N  0.42072960  0.95731053  0.04797968    -0.05100
N127        N  0.39226607  0.93255725  0.05705453    -0.57800
N128        N  0.45015291  0.95658176  0.07550013    -0.06400
N129        N  0.44246046  0.93120526  0.10357674    -0.60700
N130        N  0.41913065  0.04213893  0.05136529    -0.05400
N131        N  0.39218617  0.06826651  0.05998989    -0.57900
Mn132      Mn  0.49737300  0.00005719  0.07748798     1.20200
Mn133      Mn  0.41833469  0.00146679  0.00100491     1.10100
Cl134      Cl  0.49660694  0.00343391  0.99979494    -0.85800
C135        C  0.40652226  0.08311876  0.09519144     0.96500
C136        C  0.40642278  0.91626468  0.09155289     0.96300
C137        C  0.24391411  0.75610227  0.75024118    -0.02400
N138        N  0.94754181  0.04635516  0.57605099    -0.06000
N139        N  0.94010616  0.07182426  0.60386600    -0.58100
N140        N  0.91804357  0.96191994  0.54743239    -0.05700
N141        N  0.88940208  0.93726516  0.55649335    -0.60200
N142        N  0.94635531  0.96253311  0.57611351    -0.05300
N143        N  0.93748459  0.93863270  0.60526373    -0.58100
N144        N  0.91873549  0.04631610  0.54791286    -0.04900
N145        N  0.89101008  0.07182846  0.55596792    -0.60600
C146        C  0.90496288  0.08753337  0.59072526     0.96200
C147        C  0.90219363  0.92288264  0.59251931     0.96000
N148        N  0.94753192  0.96410535  0.42144728    -0.06200
N149        N  0.94040576  0.93890642  0.39317746    -0.58700
N150        N  0.91911430  0.04799473  0.45149975    -0.04300
N151        N  0.89133388  0.07364062  0.44396943    -0.59900
N152        N  0.94835034  0.04892565  0.42362154    -0.06200
N153        N  0.94117802  0.07534442  0.39669372    -0.59000
N154        N  0.91871561  0.96332386  0.44974605    -0.03900
N155        N  0.89118394  0.93769146  0.44115909    -0.60000
Mn156      Mn  0.91746485  0.00471459  0.49908377     1.18400
C157        C  0.90532090  0.92259147  0.40597592     0.98300
C158        C  0.90565356  0.09062992  0.40993271     0.98900
N159        N  0.04290535  0.96155990  0.57577305    -0.06200
N160        N  0.04958290  0.93563382  0.60324265    -0.62500
N161        N  0.07354784  0.04575272  0.54871187    -0.05000
N162        N  0.10171968  0.07092396  0.55690808    -0.63200
N163        N  0.04440971  0.04622871  0.57668011    -0.05700
N164        N  0.05200856  0.07190452  0.60436012    -0.62800
N165        N  0.07159481  0.96104410  0.54737307    -0.04600
N166        N  0.09843119  0.93459528  0.55486250    -0.63500
Mn167      Mn  0.99536906  0.00424100  0.57712469     1.10700
C168        C  0.08405706  0.91892699  0.58963196     0.99500
C169        C  0.08769980  0.08718435  0.59147216     0.99600
N170        N  0.04548039  0.04781898  0.42385767    -0.05700
N171        N  0.05449662  0.07310607  0.39611975    -0.61100
N172        N  0.07226889  0.96259244  0.45093764    -0.05100
N173        N  0.09970912  0.93683272  0.44314535    -0.57800
N174        N  0.04389557  0.96311172  0.42236971    -0.06400
N175        N  0.05123596  0.93738129  0.39465988    -0.60700
N176        N  0.07425713  0.04645321  0.45200762    -0.05400
N177        N  0.10367124  0.07040009  0.44376728    -0.57900
Mn178      Mn  0.99628799  0.00612168  0.42171780     1.20200
Mn179      Mn  0.07402433  0.00392171  0.49979523     1.10100
Cl180      Cl  0.99575974  0.00473917  0.49942302    -0.85800
C181        C  0.09069084  0.08702523  0.40915729     0.96500
C182        C  0.08601262  0.92120642  0.40826337     0.96300
C183        C  0.74863051  0.75426744  0.24854614    -0.02400
C184        C  0.25325867  0.25402319  0.25388656    -0.02400
C185        C  0.74304513  0.25467673  0.25143421    -0.02400
C186        C  0.24529287  0.75290079  0.25394022    -0.02400
C187        C  0.24872103  0.25326886  0.74934657    -0.02400
C188        C  0.74971430  0.75315947  0.75453154    -0.02400
C189        C  0.17037651  0.19679631  0.69994562     0.20500
C190        C  0.13121509  0.18164289  0.69334949    -0.39400
C191        C  0.12824773  0.15645760  0.66083143     0.19500
C192        C  0.16165305  0.14746308  0.63649459     0.22100
C193        C  0.20079548  0.16242993  0.64326150    -0.39900
C194        C  0.20382616  0.18716316  0.67610157     0.20900
N195        N  0.18131281  0.22121795  0.72891837    -0.33200
C196        C  0.22217290  0.22746714  0.72344288    -0.10700
C197        C  0.23726694  0.20582732  0.69126648    -0.29600
N198        N  0.15108269  0.12247571  0.60804802    -0.46100
C199        C  0.11079447  0.11511145  0.61459888    -0.05400
C200        C  0.09538921  0.13578860  0.64722386    -0.22800
H201        H  0.10509476  0.18867844  0.71235975     0.19000
H202        H  0.22707280  0.15499180  0.62465670     0.17800
H203        H  0.26856688  0.20450101  0.68010616     0.14100
H204        H  0.06456425  0.13526176  0.65970664     0.14000
H205        H  0.16190622  0.23244541  0.75111913     0.32100
H206        H  0.17033967  0.11046063  0.58617918     0.34900
C207        C  0.13286472  0.15607023  0.34367489     0.20500
C208        C  0.13281182  0.18506601  0.31522590    -0.39400
C209        C  0.17158751  0.19901743  0.30455528     0.19500
C210        C  0.20753344  0.18480113  0.32038309     0.22100
C211        C  0.20763809  0.15598329  0.34898404    -0.39900
C212        C  0.16891367  0.14247910  0.36026210     0.20900
N213        N  0.10016378  0.13797182  0.35886005    -0.33200
C214        C  0.11565732  0.11319665  0.38572699    -0.10700
C215        C  0.15831493  0.11519894  0.38755888    -0.29600
N216        N  0.24026711  0.20243373  0.30484276    -0.46100
C217        C  0.22541554  0.22836032  0.27874015    -0.05400
C218        C  0.18231785  0.22723887  0.27849766    -0.22800
H219        H  0.10470555  0.19604436  0.30249087     0.19000
H220        H  0.23577272  0.14502906  0.36168083     0.17800
H221        H  0.17878655  0.09852431  0.40591120     0.14100
H222        H  0.16110658  0.24468925  0.26209650     0.14000
H223        H  0.06930271  0.14231413  0.35166258     0.32100
H224        H  0.27092763  0.19705905  0.31181571     0.34900
C225        C  0.81812431  0.82087056  0.70878291     0.20500
C226        C  0.84849613  0.84832626  0.70844809    -0.39400
C227        C  0.85664560  0.86437065  0.67022362     0.19500
C228        C  0.83570390  0.85431302  0.63512243     0.22100
C229        C  0.80547241  0.82670107  0.63548115    -0.39900
C230        C  0.79782828  0.81025239  0.67361363     0.20900
N231        N  0.80408032  0.80197946  0.74129423    -0.33200
C232        C  0.77502203  0.77848796  0.72683534    -0.10700
C233        C  0.77020140  0.78327373  0.68453235    -0.29600
N234        N  0.84882642  0.87410752  0.60279481    -0.46100
C235        C  0.87871385  0.89648921  0.61744760    -0.05400
C236        C  0.88444892  0.89124149  0.65929879    -0.22800
H237        H  0.86457610  0.85659522  0.73590063     0.19000
H238        H  0.78911983  0.81861188  0.60812449     0.17800
H239        H  0.74842501  0.76998582  0.66440825     0.14100
H240        H  0.90594427  0.90536440  0.67907841     0.14000
H241        H  0.81346625  0.80502223  0.77164110     0.32100
H242        H  0.83846656  0.87225257  0.57264826     0.34900
C243        C  0.19843643  0.81685931  0.32476420     0.20500
C244        C  0.19805473  0.84197889  0.35717346    -0.39400
C245        C  0.16031132  0.85889202  0.36490146     0.19500
C246        C  0.12556529  0.85176094  0.34185122     0.22100
C247        C  0.12580233  0.82605259  0.30972183    -0.39900
C248        C  0.16364276  0.80873696  0.30230594     0.20900
N249        N  0.23096836  0.79833160  0.31048904    -0.33200
C250        C  0.21699276  0.77736357  0.27914837    -0.10700
C251        C  0.17492500  0.78343569  0.27296486    -0.29600
N252        N  0.09408447  0.87295655  0.35438580    -0.46100
C253        C  0.10916543  0.89322564  0.38579189    -0.05400
C254        C  0.15016140  0.88512285  0.39334441    -0.22800
H255        H  0.22531904  0.84829535  0.37471084     0.19000
H256        H  0.09879762  0.82035971  0.29154017     0.17800
H257        H  0.15540403  0.77195078  0.24944702     0.14100
H258        H  0.17013743  0.89751970  0.41592423     0.14000
H259        H  0.26106067  0.79988505  0.32137220     0.32100
H260        H  0.06443991  0.87376819  0.34228554     0.34900
C261        C  0.82653889  0.81068969  0.29779474     0.20500
C262        C  0.86352755  0.83046234  0.30099381    -0.39400
C263        C  0.86682801  0.85369196  0.33522236     0.19500
C264        C  0.83571374  0.85680922  0.36400369     0.22100
C265        C  0.79892123  0.83697937  0.36084349    -0.39900
C266        C  0.79562042  0.81389160  0.32668082     0.20900
N267        N  0.81482148  0.78831603  0.26717255    -0.33200
C268        C  0.77614502  0.77693254  0.27675634    -0.10700
C269        C  0.76321358  0.79272595  0.31363285    -0.29600
N270        N  0.84575258  0.88133006  0.39307951    -0.46100
C271        C  0.88348424  0.89403922  0.38274645    -0.05400
C272        C  0.89773101  0.87749993  0.34685225    -0.22800
H273        H  0.88756350  0.82847661  0.27814756     0.19000
H274        H  0.77431874  0.83987164  0.38295345     0.17800
H275        H  0.73343338  0.79009180  0.32814955     0.14100
H276        H  0.92649565  0.88261182  0.33114372     0.14000
H277        H  0.83171168  0.78217636  0.24082756     0.32100
H278        H  0.82780463  0.88931032  0.41810274     0.34900
C279        C  0.82168835  0.19921796  0.30129143     0.20500
C280        C  0.86095464  0.18429972  0.30770177    -0.39400
C281        C  0.86426251  0.15926848  0.34032516     0.19500
C282        C  0.83100820  0.15003856  0.36478347     0.22100
C283        C  0.79167959  0.16459681  0.35803800    -0.39900
C284        C  0.78835203  0.18934748  0.32521987     0.20900
N285        N  0.81056641  0.22366208  0.27244920    -0.33200
C286        C  0.76969267  0.22964425  0.27801299    -0.10700
C287        C  0.75475046  0.20789487  0.31020114    -0.29600
N288        N  0.84194983  0.12534455  0.39339958    -0.46100
C289        C  0.88233150  0.11843443  0.38687420    -0.05400
C290        C  0.89742108  0.13909745  0.35405823    -0.22800
H291        H  0.88695198  0.19152941  0.28859020     0.19000
H292        H  0.76553280  0.15697783  0.37676041     0.17800
H293        H  0.72345586  0.20634173  0.32134987     0.14100
H294        H  0.92822230  0.13884879  0.34150653     0.14000
H295        H  0.82980822  0.23505712  0.25017007     0.32100
H296        H  0.82286493  0.11319697  0.41535553     0.34900
C297        C  0.17005274  0.81784842  0.70362982     0.20500
C298        C  0.13539574  0.84067803  0.70239464    -0.39400
C299        C  0.12746523  0.85728420  0.66456805     0.19500
C300        C  0.15254601  0.85210425  0.63074382     0.22100
C301        C  0.18694197  0.82888358  0.63188110    -0.39900
C302        C  0.19440098  0.81172647  0.66957103     0.20900
N303        N  0.18464500  0.79955470  0.73613468    -0.33200
C304        C  0.21781286  0.78041690  0.72257988    -0.10700
C305        C  0.22513967  0.78797357  0.68112854    -0.29600
N306        N  0.13976929  0.87282142  0.59918817    -0.46100
C307        C  0.10623008  0.89102391  0.61313005    -0.05400
C308        C  0.09734902  0.88184207  0.65356609    -0.22800
H309        H  0.11626780  0.84544838  0.72901544     0.19000
H310        H  0.20665887  0.82479656  0.60554768     0.17800
H311        H  0.25008067  0.77813687  0.66209685     0.14100
H312        H  0.07314223  0.89283192  0.67278563     0.14000
H313        H  0.17255006  0.79987417  0.76577467     0.32100
H314        H  0.15341272  0.87499903  0.57031562     0.34900
C315        C  0.66603196  0.19780141  0.20063838     0.20500
C316        C  0.62692899  0.18319663  0.19259528    -0.39400
C317        C  0.62543215  0.15547084  0.16268205     0.19500
C318        C  0.66019239  0.14357756  0.14204099     0.22100
C319        C  0.69928921  0.15794579  0.15030694    -0.39900
C320        C  0.70075967  0.18541169  0.18045496     0.20900
N321        N  0.67572346  0.22397964  0.22810474    -0.33200
C322        C  0.71709572  0.22860225  0.22530996    -0.10700
C323        C  0.73363160  0.20443143  0.19618825    -0.29600
N324        N  0.65060376  0.11731194  0.11474290    -0.46100
C325        C  0.60954524  0.11219896  0.11832904    -0.05400
C326        C  0.59269937  0.13529144  0.14804387    -0.22800
H327        H  0.59972777  0.19259266  0.20859282     0.19000
H328        H  0.72655693  0.14833465  0.13456721     0.17800
H329        H  0.76562548  0.20131517  0.18777986     0.14100
H330        H  0.56085861  0.13719393  0.15741328     0.14000
H331        H  0.65513088  0.23711565  0.24779110     0.32100
H332        H  0.67077818  0.10341232  0.09518778     0.34900
C333        C  0.36803862  0.14849830  0.16749757     0.20500
C334        C  0.36397428  0.16633141  0.20551009    -0.39400
C335        C  0.33069390  0.19084774  0.20889683     0.19500
C336        C  0.30440285  0.19765020  0.17669216     0.22100
C337        C  0.30863379  0.18009102  0.13878649    -0.39900
C338        C  0.34113119  0.15506702  0.13560802     0.20900
N339        N  0.39558824  0.12255866  0.15685109    -0.33200
C340        C  0.38560869  0.11242170  0.11816155    -0.10700
C341        C  0.35192862  0.13212288  0.10388317    -0.29600
N342        N  0.27476756  0.22134965  0.18757934    -0.46100
C343        C  0.28127402  0.22960783  0.22757281    -0.05400
C344        C  0.31630609  0.21092680  0.24172587    -0.22800
H345        H  0.38439492  0.16074154  0.23083885     0.19000
H346        H  0.28739894  0.18480648  0.11391888     0.17800
H347        H  0.33685296  0.12944173  0.07456522     0.14100
H348        H  0.32942899  0.21178880  0.27208983     0.14000
H349        H  0.41902020  0.11177970  0.17504690     0.32100
H350        H  0.25141429  0.23029520  0.16833131     0.34900
C351        C  0.29038126  0.82094356  0.18576687     0.20500
C352        C  0.29080765  0.84544925  0.15260500    -0.39400
C353        C  0.32905165  0.86093929  0.14294651     0.19500
C354        C  0.36403837  0.85374852  0.16553180     0.22100
C355        C  0.36345280  0.82963427  0.19930278    -0.39900
C356        C  0.32534227  0.81300848  0.20797817     0.20900
N357        N  0.25822049  0.80134934  0.19956458    -0.33200
C358        C  0.27270489  0.77948040  0.22997513    -0.10700
C359        C  0.31453749  0.78673462  0.23663692    -0.29600
N360        N  0.39642951  0.87224493  0.14997791    -0.46100
C361        C  0.38186132  0.89085415  0.11699416    -0.05400
C362        C  0.34005986  0.88437011  0.11163550    -0.22800
H363        H  0.26355704  0.85118332  0.13482947     0.19000
H364        H  0.39080485  0.82347569  0.21675865     0.17800
H365        H  0.33449784  0.77469164  0.25941576     0.14100
H366        H  0.32024181  0.89575391  0.08830351     0.14000
H367        H  0.22820722  0.80226169  0.18839167     0.32100
H368        H  0.42649327  0.87223026  0.16104857     0.34900
C369        C  0.67956590  0.82112573  0.79610022     0.20500
C370        C  0.64940160  0.84862964  0.79406673    -0.39400
C371        C  0.63751051  0.86396161  0.83158528     0.19500
C372        C  0.65488103  0.85318254  0.86830967     0.22100
C373        C  0.68489893  0.82538896  0.87035820    -0.39900
C374        C  0.69640572  0.80969101  0.83275235     0.20900
N375        N  0.69622689  0.80266908  0.76465372    -0.33200
C376        C  0.72368622  0.77872420  0.78102362    -0.10700
C377        C  0.72479534  0.78261181  0.82371408    -0.29600
N378        N  0.63952137  0.87322143  0.89939116    -0.46100
C379        C  0.61193202  0.89653921  0.88225005    -0.05400
C380        C  0.60959844  0.89144946  0.84009804    -0.22800
H381        H  0.63630585  0.85756724  0.76532618     0.19000
H382        H  0.69849107  0.81684401  0.89901684     0.17800
H383        H  0.74412831  0.76822815  0.84533073     0.14100
H384        H  0.59095180  0.90661146  0.81849641     0.14000
H385        H  0.68934005  0.80609271  0.73368666     0.32100
H386        H  0.64746148  0.87136345  0.93026619     0.34900
C387        C  0.36535559  0.15795252  0.84596527     0.20500
C388        C  0.36594815  0.18176220  0.81205162    -0.39400
C389        C  0.32809837  0.19774144  0.80183793     0.19500
C390        C  0.29249390  0.19026396  0.82346616     0.22100
C391        C  0.29199359  0.16684147  0.85759741    -0.39900
C392        C  0.32982504  0.15118031  0.86812649     0.20900
N393        N  0.39659434  0.13768075  0.86050821    -0.33200
C394        C  0.38078329  0.11801401  0.89216829    -0.10700
C395        C  0.33937202  0.12598726  0.89818592    -0.29600
N396        N  0.26045996  0.20821497  0.80720196    -0.46100
C397        C  0.27563478  0.22826073  0.77549970    -0.05400
C398        C  0.31785885  0.22173080  0.77081819    -0.22800
H399        H  0.39364886  0.18702867  0.79459253     0.19000
H400        H  0.26408121  0.16091175  0.87443208     0.17800
H401        H  0.31860803  0.11360456  0.92018268     0.14100
H402        H  0.33839204  0.23258863  0.74766598     0.14000
H403        H  0.42650954  0.13651553  0.84893118     0.32100
H404        H  0.23004739  0.20737986  0.81744601     0.34900
C405        C  0.67830283  0.80159373  0.17925820     0.20500
C406        C  0.64661092  0.80495828  0.15039670    -0.39400
C407        C  0.63827607  0.84106247  0.13705745     0.19500
C408        C  0.66014758  0.87129309  0.15118506     0.22100
C409        C  0.69134144  0.86792632  0.18031248    -0.39900
C410        C  0.69930495  0.83198931  0.19384555     0.20900
N411        N  0.69283680  0.77043881  0.19626644    -0.33200
C412        C  0.72301076  0.78100295  0.22252977    -0.10700
C413        C  0.72765806  0.81949157  0.22149315    -0.29600
N414        N  0.64666971  0.90254459  0.13379617    -0.46100
C415        C  0.61581720  0.89220698  0.10867379    -0.05400
C416        C  0.60940677  0.85418054  0.10986141    -0.22800
H417        H  0.62975853  0.78128606  0.13916066     0.19000
H418        H  0.70820370  0.89157128  0.19161577     0.17800
H419        H  0.74932725  0.83637576  0.23816780     0.14100
H420        H  0.58656649  0.83842636  0.09336341     0.14000
H421        H  0.68282452  0.74357076  0.19026598     0.32100
H422        H  0.65726346  0.92934401  0.13916260     0.34900
C423        C  0.33932211  0.85260130  0.86631782     0.20500
C424        C  0.30645867  0.82755915  0.86689122    -0.39400
C425        C  0.29538196  0.81285605  0.82884215     0.19500
C426        C  0.31520486  0.82256288  0.79295785     0.22100
C427        C  0.34821213  0.84748971  0.79234739    -0.39900
C428        C  0.35967493  0.86187791  0.83048654     0.20900
N429        N  0.35459568  0.87155070  0.89814170    -0.33200
C430        C  0.38498828  0.89291022  0.88248486    -0.10700
C431        C  0.38942387  0.88737868  0.84048229    -0.29600
N432        N  0.29889525  0.80456282  0.76100982    -0.46100
C433        C  0.26901114  0.78241880  0.77661248    -0.05400
C434        C  0.26548405  0.78760234  0.81894750    -0.22800
H435        H  0.29056984  0.82019036  0.89486658     0.19000
H436        H  0.36378465  0.85511930  0.76428167     0.17800
H437        H  0.41032555  0.90134804  0.81982027     0.14100
H438        H  0.24407218  0.77476670  0.83994932     0.14000
H439        H  0.34441487  0.87061469  0.92846670     0.32100
H440        H  0.30812244  0.80655278  0.73044245     0.34900
C441        C  0.82584031  0.19846509  0.69835272     0.20500
C442        C  0.86274786  0.17896178  0.69481393    -0.39400
C443        C  0.86596064  0.15597513  0.66062449     0.19500
C444        C  0.83487176  0.15278802  0.63199645     0.22100
C445        C  0.79800800  0.17249863  0.63540052    -0.39900
C446        C  0.79476280  0.19542377  0.66976511     0.20900
N447        N  0.81451640  0.22051991  0.72925285    -0.33200
C448        C  0.77589356  0.23199314  0.72036849    -0.10700
C449        C  0.76251197  0.21658068  0.68344112    -0.29600
N450        N  0.84508674  0.12828799  0.60296340    -0.46100
C451        C  0.88282007  0.11588516  0.61343132    -0.05400
C452        C  0.89691299  0.13242135  0.64913849    -0.22800
H453        H  0.88680628  0.18092645  0.71749366     0.19000
H454        H  0.77339553  0.16959758  0.61344086     0.17800
H455        H  0.73267576  0.21955915  0.66930805     0.14100
H456        H  0.92558797  0.12742021  0.66486764     0.14000
H457        H  0.83178832  0.22644101  0.75531472     0.32100
H458        H  0.82732042  0.12011443  0.57798571     0.34900
C459        C  0.65165370  0.13986541  0.84164141     0.20500
C460        C  0.68096671  0.14255486  0.81028164    -0.39400
C461        C  0.69332471  0.17844197  0.79993481     0.19500
C462        C  0.67751707  0.20939795  0.81892156     0.22100
C463        C  0.64803132  0.20675211  0.85038736    -0.39900
C464        C  0.63585844  0.17071299  0.86114007     0.20900
N465        N  0.63529314  0.10881349  0.85715077    -0.33200
C466        C  0.60898506  0.11976576  0.88687793    -0.10700
C467        C  0.60839611  0.15817890  0.89045077    -0.29600
N468        N  0.69467754  0.24024477  0.80340872    -0.46100
C469        C  0.72212949  0.22902298  0.77447408    -0.05400
C470        C  0.72172086  0.19031878  0.77168619    -0.22800
H471        H  0.69349410  0.11841835  0.79523765     0.19000
H472        H  0.63575729  0.23090798  0.86557957     0.17800
H473        H  0.59034330  0.17460998  0.91149736     0.14100
H474        H  0.73996605  0.17278896  0.75195352     0.14000
H475        H  0.64166049  0.08172642  0.84817837     0.32100
H476        H  0.68826122  0.26736531  0.81222057     0.34900
C477        C  0.15941736  0.36998998  0.15896002     0.20500
C478        C  0.19066233  0.36725820  0.18823778    -0.39400
C479        C  0.20148819  0.33133645  0.19987895     0.19500
C480        C  0.18260838  0.30047728  0.18377308     0.22100
C481        C  0.15106421  0.30313998  0.15456864    -0.39900
C482        C  0.14024067  0.33917358  0.14272537     0.20900
N483        N  0.14396834  0.40106539  0.14279951    -0.33200
C484        C  0.11473264  0.39015457  0.11607746    -0.10700
C485        C  0.11129961  0.35173417  0.11508506    -0.29600
N486        N  0.19842798  0.26960019  0.20021434    -0.46100
C487        C  0.22784943  0.28058207  0.22717476    -0.05400
C488        C  0.23027069  0.31927830  0.22756362    -0.22800
H489        H  0.20551519  0.39138309  0.20098604     0.19000
H490        H  0.13614340  0.27897842  0.14198261     0.17800
H491        H  0.09060608  0.33532765  0.09666419     0.14100
H492        H  0.25011490  0.33661999  0.24583183     0.14000
H493        H  0.15271877  0.42814904  0.14950373     0.32100
H494        H  0.18914142  0.24260894  0.19377061     0.34900
C495        C  0.19566938  0.69930334  0.17369009     0.20500
C496        C  0.18701907  0.68670602  0.13394362    -0.39400
C497        C  0.15625355  0.65957817  0.13115475     0.19500
C498        C  0.13557397  0.64652418  0.16533325     0.22100
C499        C  0.14438454  0.65889206  0.20483145    -0.39900
C500        C  0.17522946  0.68557682  0.20758450     0.20900
N501        N  0.22353751  0.72479643  0.18488297    -0.33200
C502        C  0.22047386  0.72743131  0.22631887    -0.10700
C503        C  0.19103984  0.70278075  0.24131877    -0.29600
N504        N  0.10825251  0.62053225  0.15503075    -0.46100
C505        C  0.11179383  0.61647830  0.11407918    -0.05400
C506        C  0.14138481  0.64032239  0.09787217    -0.22800
H507        H  0.20322416  0.69699431  0.10731108     0.19000
H508        H  0.12862007  0.64822690  0.23154692     0.17800
H509        H  0.18207008  0.69854159  0.27289481     0.14100
H510        H  0.15116391  0.64269497  0.06629675     0.14000
H511        H  0.24326256  0.73909856  0.16526397     0.32100
H512        H  0.08920660  0.60563126  0.17483570     0.34900
C513        C  0.84481010  0.65834732  0.13113567     0.20500
C514        C  0.81253974  0.68407921  0.13042644    -0.39400
C515        C  0.80242115  0.70002522  0.16831135     0.19500
C516        C  0.82283467  0.69097707  0.20391072     0.22100
C517        C  0.85567722  0.66604904  0.20446414    -0.39900
C518        C  0.86586467  0.65019100  0.16675332     0.20900
N519        N  0.85859079  0.63743432  0.09999479    -0.33200
C520        C  0.88870894  0.61610591  0.11607269    -0.10700
C521        C  0.89443294  0.62355741  0.15744424    -0.29600
N522        N  0.80654593  0.70872622  0.23599317    -0.46100
C523        C  0.77527475  0.72960433  0.22127900    -0.05400
C524        C  0.77225614  0.72502568  0.17869233    -0.22800
H525        H  0.79590940  0.69050636  0.10270204     0.19000
H526        H  0.87150069  0.65885668  0.23243452     0.17800
H527        H  0.91534993  0.61003661  0.17830535     0.14100
H528        H  0.75097584  0.73781398  0.15774245     0.14000
H529        H  0.84768003  0.63712006  0.06997636     0.32100
H530        H  0.81683917  0.70688068  0.26626772     0.34900
C531        C  0.20250707  0.69081827  0.82390417     0.20500
C532        C  0.20366488  0.66677276  0.85760911    -0.39400
C533        C  0.16597077  0.65065313  0.86856491     0.19500
C534        C  0.13017785  0.65761244  0.84712074     0.22100
C535        C  0.12904896  0.68189690  0.81376085    -0.39900
C536        C  0.16654129  0.69832318  0.80318830     0.20900
N537        N  0.23398896  0.70952424  0.80728467    -0.33200
C538        C  0.21791493  0.73012112  0.77645885    -0.10700
C539        C  0.17583095  0.72302555  0.77255448    -0.29600
N540        N  0.09901866  0.63719920  0.86176049    -0.46100
C541        C  0.11493344  0.61715618  0.89284273    -0.05400
C542        C  0.15652815  0.62505201  0.89842166    -0.22800
H543        H  0.23182896  0.66084990  0.87384875     0.19000
H544        H  0.10108420  0.68729940  0.79698481     0.17800
H545        H  0.15469967  0.73390914  0.75012995     0.14100
H546        H  0.17738501  0.61249135  0.92006665     0.14000
H547        H  0.26459511  0.70883361  0.81677404     0.32100
H548        H  0.06898018  0.63629736  0.85066772     0.34900
C549        C  0.86663815  0.65497254  0.84703725     0.20500
C550        C  0.86763126  0.68224490  0.81653550    -0.39400
C551        C  0.82950013  0.69754304  0.80613904     0.19500
C552        C  0.79323762  0.68614377  0.82429905     0.22100
C553        C  0.79220906  0.65894915  0.85480443    -0.39900
C554        C  0.83034528  0.64408876  0.86569239     0.20900
N555        N  0.89853756  0.63577578  0.86196639    -0.33200
C556        C  0.88239904  0.61286284  0.89057617    -0.10700
C557        C  0.84002251  0.61731846  0.89394773    -0.29600
N558        N  0.76115832  0.70434739  0.80850029    -0.46100
C559        C  0.77684437  0.72811375  0.78037817    -0.05400
C560        C  0.81961891  0.72428487  0.77787254    -0.22800
H561        H  0.89595483  0.69086331  0.80195699     0.19000
H562        H  0.76380876  0.65003953  0.86901551     0.17800
H563        H  0.81905584  0.60232713  0.91364696     0.14100
H564        H  0.84075700  0.73838362  0.75760390     0.14000
H565        H  0.92931338  0.63797271  0.85316238     0.32100
H566        H  0.73025990  0.70083291  0.81631405     0.34900
C567        C  0.20174864  0.31168255  0.82714179     0.20500
C568        C  0.19673156  0.32831407  0.86567777    -0.39400
C569        C  0.16418648  0.35359867  0.86889202     0.19500
C570        C  0.13863041  0.36149372  0.83624992     0.22100
C571        C  0.14414379  0.34538682  0.79766227    -0.39900
C572        C  0.17673754  0.32036174  0.79442746     0.20900
N573        N  0.23004890  0.28655087  0.81611916    -0.33200
C574        C  0.22290698  0.27896334  0.77597510    -0.10700
C575        C  0.19041902  0.30041401  0.76136669    -0.29600
N576        N  0.10976746  0.38608794  0.84707041    -0.46100
C577        C  0.11711220  0.39420578  0.88679617    -0.05400
C578        C  0.15088887  0.37461497  0.90154006    -0.22800
H579        H  0.21657628  0.32196591  0.89123838     0.19000
H580        H  0.12447598  0.35187303  0.77201489     0.17800
H581        H  0.17830474  0.30103277  0.73057171     0.14100
H582        H  0.16395393  0.37571019  0.93193068     0.14000
H583        H  0.25306150  0.27585405  0.83486371     0.32100
H584        H  0.08680436  0.39705256  0.82842624     0.34900
C585        C  0.83824133  0.35289728  0.13634699     0.20500
C586        C  0.80581368  0.32742385  0.13542660    -0.39400
C587        C  0.79547022  0.31140458  0.17309685     0.19500
C588        C  0.81530999  0.32061962  0.20901328     0.22100
C589        C  0.84775335  0.34611737  0.21000191    -0.39900
C590        C  0.85870062  0.36157994  0.17217328     0.20900
N591        N  0.85366905  0.37209212  0.10469905    -0.33200
C592        C  0.88442872  0.39281750  0.12040993    -0.10700
C593        C  0.88869906  0.38695106  0.16235161    -0.29600
N594        N  0.79922939  0.30196562  0.24069565    -0.46100
C595        C  0.76943734  0.27994250  0.22492771    -0.05400
C596        C  0.76597695  0.28556138  0.18267353    -0.22800
H597        H  0.78992916  0.32048237  0.10741869     0.19000
H598        H  0.86342489  0.35322664  0.23808191     0.17800
H599        H  0.91014508  0.40013470  0.18296264     0.14100
H600        H  0.74439524  0.27308248  0.16171029     0.14000
H601        H  0.84379592  0.37129478  0.07433253     0.32100
H602        H  0.80813833  0.30385058  0.27130746     0.34900
C603        C  0.86387779  0.35954887  0.83692180     0.20500
C604        C  0.85612731  0.34574630  0.79766198    -0.39400
C605        C  0.82513111  0.31901865  0.79510850     0.19500
C606        C  0.80394723  0.30633373  0.82894827     0.22100
C607        C  0.81191301  0.31993865  0.86843232    -0.39900
C608        C  0.84241930  0.34734606  0.87098647     0.20900
N609        N  0.89077433  0.38609365  0.84711211    -0.33200
C610        C  0.88621029  0.39122400  0.88790515    -0.10700
C611        C  0.85628289  0.36762410  0.90396529    -0.29600
N612        N  0.77536463  0.28139344  0.81795975    -0.46100
C613        C  0.77757218  0.27870556  0.77642721    -0.05400
C614        C  0.80905131  0.30156652  0.76158176    -0.22800
H615        H  0.87235214  0.35574569  0.77090288     0.19000
H616        H  0.79492922  0.31056923  0.89499872     0.17800
H617        H  0.84583539  0.36584540  0.93537279     0.14100
H618        H  0.81955695  0.30475252  0.73042603     0.14000
H619        H  0.91043942  0.40040755  0.82737846     0.32100
H620        H  0.75546739  0.26789502  0.83802567     0.34900
C621        C  0.66111519  0.65011619  0.64081007     0.20500
C622        C  0.70097762  0.66165633  0.65041800    -0.39400
C623        C  0.70403536  0.68664542  0.68288630     0.19500
C624        C  0.67003295  0.69967065  0.70380457     0.22100
C625        C  0.63009457  0.68764648  0.69463285    -0.39900
C626        C  0.62701810  0.66222638  0.66238869     0.20900
N627        N  0.65030108  0.62568406  0.61200110    -0.33200
C628        C  0.60913854  0.62166270  0.61566305    -0.10700
C629        C  0.59335083  0.64403681  0.64665913    -0.29600
N630        N  0.68117965  0.72450914  0.73220265    -0.46100
C631        C  0.72273060  0.72748215  0.72920541    -0.05400
C632        C  0.73795501  0.70338472  0.69940177    -0.22800
H633        H  0.72766973  0.65177390  0.63392564     0.19000
H634        H  0.60345311  0.69735017  0.71133161     0.17800
H635        H  0.56179043  0.64596583  0.65693411     0.14100
H636        H  0.76965105  0.69969872  0.69018848     0.14000
H637        H  0.66991265  0.61157868  0.59206578     0.32100
H638        H  0.66139686  0.73850541  0.75201640     0.34900
C639        C  0.34162183  0.35275208  0.63392801     0.20500
C640        C  0.30773098  0.32886135  0.63369956    -0.39400
C641        C  0.29900873  0.31143367  0.67098740     0.19500
C642        C  0.32169083  0.31798163  0.70593127     0.22100
C643        C  0.35575926  0.34164087  0.70613820    -0.39900
C644        C  0.36504790  0.35846622  0.66866402     0.20900
N645        N  0.35539896  0.37358684  0.60284047    -0.33200
C646        C  0.38793165  0.39244567  0.61789154    -0.10700
C647        C  0.39520916  0.38354837  0.65869626    -0.29600
N648        N  0.30644392  0.29888397  0.73762657    -0.46100
C649        C  0.27460755  0.27881794  0.72267548    -0.05400
C650        C  0.26863876  0.28663641  0.68114598    -0.22800
H651        H  0.28941418  0.32432976  0.60657751     0.19000
H652        H  0.37359812  0.34666485  0.73347284     0.17800
H653        H  0.41835089  0.39500313  0.67874433     0.14100
H654        H  0.24491850  0.27622752  0.66110797     0.14000
H655        H  0.34300438  0.37539948  0.57346493     0.32100
H656        H  0.31738051  0.29914014  0.76764259     0.34900
C657        C  0.69610383  0.31354519  0.32875812     0.20500
C658        C  0.69123645  0.32981896  0.36743062    -0.39400
C659        C  0.65890949  0.35516669  0.37100375     0.19500
C660        C  0.63342271  0.36359817  0.33848800     0.22100
C661        C  0.63889859  0.34795158  0.29957258    -0.39900
C662        C  0.67132298  0.32268505  0.29603161     0.13700
N663        N  0.72405439  0.28817869  0.31777110    -0.33200
C664        C  0.71703073  0.28066569  0.27762958    -0.10700
C665        C  0.68497972  0.30268436  0.26287206    -0.29600
N666        N  0.60489776  0.38834618  0.34977929    -0.46100
C667        C  0.61255805  0.39602943  0.38960662    -0.05400
C668        C  0.64601740  0.37591079  0.40399371    -0.22800
H669        H  0.71101391  0.32306540  0.39291029     0.19000
H670        H  0.61932034  0.35488314  0.27399503     0.17800
H671        H  0.67310967  0.30362047  0.23198868     0.14100
H672        H  0.65930115  0.37664775  0.43429955     0.14000
H673        H  0.74680790  0.27727734  0.33666533     0.32100
H674        H  0.58211725  0.39986257  0.33131713     0.34900
C675        C  0.33680532  0.65651710  0.37331756     0.20500
C676        C  0.30238376  0.67977935  0.37233295    -0.39400
C677        C  0.29394436  0.69604518  0.33431744     0.19500
C678        C  0.31739890  0.68906318  0.29984537     0.22100
C679        C  0.35186425  0.66598242  0.30083224    -0.39900
C680        C  0.36086225  0.65038341  0.33896735     0.20900
N681        N  0.35061177  0.63670655  0.40522543    -0.33200
C682        C  0.38378882  0.61812266  0.39095281    -0.10700
C683        C  0.39141532  0.62625260  0.34997607    -0.29600
N684        N  0.30276993  0.70751890  0.26745051    -0.46100
C685        C  0.27045999  0.72755936  0.28142593    -0.05400
C686        C  0.26360589  0.72037427  0.32305748    -0.22800
H687        H  0.28356824  0.68480571  0.39911370     0.19000
H688        H  0.37035541  0.66061710  0.27390813     0.17800
H689        H  0.41507681  0.61478659  0.33043038     0.14100
H690        H  0.23953665  0.73114049  0.34256616     0.14000
H691        H  0.33785207  0.63533947  0.43455160     0.32100
H692        H  0.31451609  0.70707105  0.23767239     0.34900
C693        C  0.63022544  0.66088129  0.34707133     0.20500
C694        C  0.62964138  0.68818588  0.31664471    -0.39400
C695        C  0.66814504  0.70186361  0.30464335     0.19500
C696        C  0.70434787  0.68927279  0.32147870     0.22100
C697        C  0.70496764  0.66261286  0.35261834    -0.39900
C698        C  0.66648616  0.64904755  0.36480360     0.20900
N699        N  0.59797524  0.64213432  0.36228940    -0.33200
C700        C  0.61389025  0.61854814  0.39018521    -0.10700
C701        C  0.65641157  0.62223700  0.39292331    -0.29600
N702        N  0.73672629  0.70587089  0.30389270    -0.46100
C703        C  0.72143164  0.72941586  0.27531661    -0.05400
C704        C  0.67834195  0.72791240  0.27571320    -0.22800
H705        H  0.60136648  0.69761132  0.30281729     0.19000
H706        H  0.73333250  0.65273669  0.36589275     0.17800
H707        H  0.67723474  0.60643809  0.41182974     0.14100
H708        H  0.65673822  0.74377076  0.25793432     0.14000
H709        H  0.56718152  0.64491580  0.35397851     0.32100
H710        H  0.76745076  0.70148835  0.31156200     0.34900
C711        C  0.66604923  0.36605996  0.63956712     0.20500
C712        C  0.70529338  0.35204230  0.64773817    -0.39400
C713        C  0.70696132  0.32433451  0.67763706     0.19500
C714        C  0.67234908  0.31118883  0.69736657     0.22100
C715        C  0.63307657  0.32505149  0.68903419    -0.39900
C716        C  0.63137389  0.35320747  0.65968921     0.20900
N717        N  0.65624303  0.39317602  0.61336140    -0.33200
C718        C  0.61513731  0.39782036  0.61729594    -0.10700
C719        C  0.59850688  0.37348933  0.64586648    -0.29600
N720        N  0.68222153  0.28493284  0.72461317    -0.46100
C721        C  0.72378906  0.28155833  0.72295908    -0.05400
C722        C  0.73993147  0.30557244  0.69328104    -0.22800
H723        H  0.73254311  0.36233663  0.63246018     0.19000
H724        H  0.60593919  0.31509216  0.70475195     0.17800
H725        H  0.56674205  0.37115672  0.65537808     0.14100
H726        H  0.77142014  0.30844001  0.68336732     0.14000
H727        H  0.67630738  0.40807580  0.59457763     0.32100
H728        H  0.66139171  0.27067687  0.74304895     0.34900
C729        C  0.36157618  0.65582371  0.66184197     0.20500
C730        C  0.36177914  0.68199251  0.69342262    -0.39400
C731        C  0.32409277  0.69926700  0.70121558     0.19500
C732        C  0.28887343  0.69065037  0.67967320     0.22100
C733        C  0.28875617  0.66493888  0.64767204    -0.39900
C734        C  0.32653795  0.64804508  0.63949153     0.20900
N735        N  0.39316696  0.63498257  0.64909561    -0.33200
C736        C  0.37813332  0.61419170  0.61816246    -0.10700
C737        C  0.33678301  0.62158376  0.61111769    -0.29600
N738        N  0.25666561  0.70948085  0.69432761    -0.46100
C739        C  0.27142145  0.73104497  0.72490500    -0.05400
C740        C  0.31355348  0.72514014  0.73018856    -0.22800
H741        H  0.38912735  0.68816154  0.71088693     0.19000
H742        H  0.26120935  0.65829518  0.63072458     0.17800
H743        H  0.31679773  0.60880863  0.58880342     0.14100
H744        H  0.33362345  0.73716342  0.75290128     0.14000
H745        H  0.42303651  0.63487599  0.66067347     0.32100
H746        H  0.22632429  0.70779651  0.68416691     0.34900
C747        C  0.34267830  0.35116300  0.37421891     0.20500
C748        C  0.30845023  0.32750998  0.37306526    -0.39400
C749        C  0.30266168  0.30833684  0.33615828     0.19500
C750        C  0.32890976  0.31255059  0.30312415     0.22100
C751        C  0.36354263  0.33545106  0.30460143    -0.39900
C752        C  0.36932612  0.35456012  0.34133243     0.20900
N753        N  0.35368856  0.37415594  0.40459405    -0.33200
C754        C  0.38759024  0.39208858  0.39076276    -0.10700
C755        C  0.39837707  0.38046503  0.35160093    -0.29600
N756        N  0.31523502  0.29362086  0.27066806    -0.46100
C757        C  0.28010100  0.27664006  0.28287493    -0.05400
C758        C  0.27133159  0.28526752  0.32380254    -0.22800
H759        H  0.28722275  0.32510818  0.39848088     0.19000
H760        H  0.38377298  0.33905494  0.27856165     0.17800
H761        H  0.42330487  0.39055489  0.33266323     0.14100
H762        H  0.24476221  0.27705494  0.34159114     0.14000
H763        H  0.33871770  0.37790228  0.43260129     0.32100
H764        H  0.32861114  0.29288094  0.24158961     0.34900
loop_ 
_geom_bond_atom_site_label_1 
_geom_bond_atom_site_label_2 
_geom_bond_distance 
_geom_bond_site_symmetry_2 
_ccdc_geom_bond_type 
N1            N2   1.319       .  A
N1            N7   1.315       .  A
N1          Mn30   2.203       .  S
N2            C9   1.352       .  A
N3            N5   1.316       .  A
N3            N4   1.322       .  A
N3          Mn19   2.209       .  S
N4           C10   1.354       .  A
N5            N6   1.318       .  A
N5          Mn30   2.193       .  S
N6           C10   1.350       .  A
N7            N8   1.321       .  A
N7          Mn19   2.193       .  S
N8            C9   1.351       .  A
C9          C754   1.468       .  S
C10         C682   1.466       .  S
N11          N17   1.315       .  A
N11          N12   1.320       .  A
N11         Mn41   2.199       .  S
N12          C20   1.352       .  A
N13          N14   1.319       .  A
N13          N15   1.316       .  A
N13         Mn19   2.202       .  S
N14          C21   1.352       .  A
N15          N16   1.319       .  A
N15         Mn41   2.196       .  S
N16          C21   1.351       .  A
N17          N18   1.318       .  A
N17         Mn19   2.187       .  S
N18          C20   1.349       .  A
Mn19        Cl43   2.546       .  S
C20         C736   1.462       .  S
C21         C646   1.463       .  S
N22          N23   1.322       .  A
N22          N28   1.315       .  A
N22         Mn30   2.208       .  S
N23          C31   1.354       .  A
N24          N26   1.316       .  A
N24          N25   1.321       .  A
N24         Mn42   2.207       .  S
N25          C32   1.354       .  A
N26          N27   1.319       .  A
N26         Mn30   2.200       .  S
N27          C32   1.351       .  A
N28          N29   1.318       .  A
N28         Mn42   2.186       .  S
N29          C31   1.349       .  A
Mn30        Cl43   2.541       .  S
C31         C700   1.465       .  S
C32         C667   1.468       .  S
N33          N34   1.321       .  A
N33          N39   1.315       .  A
N33         Mn41   2.206       .  S
N34          C44   1.353       .  A
N35          N36   1.319       .  A
N35          N37   1.316       .  A
N35         Mn42   2.200       .  S
N36          C45   1.351       .  A
N37          N38   1.320       .  A
N37         Mn41   2.201       .  S
N38          C45   1.352       .  A
N39          N40   1.319       .  A
N39         Mn42   2.185       .  S
N40          C44   1.349       .  A
Mn41        Cl43   2.541       .  S
Mn42        Cl43   2.547       .  S
C44         C718   1.463       .  S
C45         C628   1.464       .  S
N46          N47   1.321       .  A
N46          N52   1.318       .  A
N46         Mn75   2.216   1_655  S
N47          C54   1.353       .  A
N48          N50   1.316       .  A
N48          N49   1.320       .  A
N48         Mn64   2.199   1_556  S
N49          C55   1.351       .  A
N50          N51   1.321       .  A
N50         Mn75   2.203   1_655  S
N51          C55   1.352       .  A
N52          N53   1.321       .  A
N52         Mn64   2.204   1_556  S
N53          C54   1.352       .  A
C54         C610   1.471       .  S
C55         C556   1.466       .  S
N56          N62   1.316       .  A
N56          N57   1.319       .  A
N56         Mn86   2.200   1_655  S
N57          C65   1.352       .  A
N58          N59   1.320       .  A
N58          N60   1.316       .  A
N58         Mn64   2.207       .  S
N59          C66   1.352       .  A
N60          N61   1.320       .  A
N60         Mn86   2.192   1_655  S
N61          C66   1.351       .  A
N62          N63   1.322       .  A
N62         Mn64   2.207       .  S
N63          C65   1.353       .  A
Mn64        Cl88   2.543   1_655  S
C65         C520   1.467       .  S
C66         C592   1.466       .  S
N67          N68   1.321       .  A
N67          N73   1.316       .  A
N67         Mn75   2.212       .  S
N68          C76   1.354       .  A
N69          N71   1.316       .  A
N69          N70   1.320       .  A
N69         Mn87   2.191   1_556  S
N70          C77   1.350       .  A
N71          N72   1.321       .  A
N71         Mn75   2.214       .  S
N72          C77   1.354       .  A
N73          N74   1.320       .  A
N73         Mn87   2.195   1_556  S
N74          C76   1.351       .  A
Mn75        Cl88   2.547   1_556  S
C76         C541   1.469       .  S
C77         C577   1.469       .  S
N78          N79   1.322       .  A
N78          N84   1.316       .  A
N78         Mn86   2.205       .  S
N79          C89   1.352       .  A
N80          N81   1.320       .  A
N80          N82   1.314       .  A
N80         Mn87   2.190       .  S
N81          C90   1.350       .  A
N82          N83   1.319       .  A
N82         Mn86   2.200       .  S
N83          C90   1.352       .  A
N84          N85   1.322       .  A
N84         Mn87   2.211       .  S
N85          C89   1.353       .  A
Mn86        Cl88   2.550       .  S
Mn87        Cl88   2.545       .  S
C89         C484   1.468       .  S
C90         C505   1.463       .  S
C91         C448   1.524       .  S
C91         C469   1.541       .  S
C91         C613   1.537       .  S
C91         C721   1.532       .  S
N92          N93   1.322       .  A
N92          N98   1.316       .  A
N92        Mn121   2.205       .  S
N93         C100   1.352       .  A
N94          N96   1.316       .  A
N94          N95   1.320       .  A
N94        Mn110   2.199   1_565  S
N95         C101   1.351       .  A
N96          N97   1.321       .  A
N96        Mn121   2.203   1_565  S
N97         C101   1.353       .  A
N98          N99   1.322       .  A
N98        Mn110   2.216       .  S
N99         C100   1.353       .  A
C100        C466   1.469       .  S
C101        C379   1.467       .  S
N102        N108   1.316       .  A
N102        N103   1.319       .  A
N102       Mn132   2.194   1_565  S
N103        C111   1.350       .  A
N104        N105   1.319       .  A
N104        N106   1.316       .  A
N104       Mn110   2.193   1_554  S
N105        C112   1.350       .  A
N106        N107   1.321       .  A
N106       Mn132   2.203       .  S
N107        C112   1.352       .  A
N108        N109   1.321       .  A
N108       Mn110   2.203   1_564  S
N109        C111   1.352       .  A
Mn110      Cl134   2.549       .  S
C111        C415   1.460       .  S
C112        C325   1.465       .  S
N113        N114   1.321       .  A
N113        N119   1.317       .  A
N113       Mn121   2.208   1_565  S
N114        C122   1.352       .  A
N115        N117   1.316       .  A
N115        N116   1.322       .  A
N115       Mn133   2.216   1_556  S
N116        C123   1.355       .  A
N117        N118   1.319       .  A
N117       Mn121   2.192       .  S
N118        C123   1.349       .  A
N119        N120   1.321       .  A
N119       Mn133   2.207   1_566  S
N120        C122   1.352       .  A
Mn121      Cl134   2.549       .  S
C122        C430   1.468       .  S
C123        C394   1.468       .  S
N124        N125   1.320       .  A
N124        N130   1.316       .  A
N124       Mn132   2.193       .  S
N125        C135   1.350       .  A
N126        N127   1.322       .  A
N126        N128   1.316       .  A
N126       Mn133   2.218   1_565  S
N127        C136   1.355       .  A
N128        N129   1.322       .  A
N128       Mn132   2.201   1_565  S
N129        C136   1.351       .  A
N130        N131   1.321       .  A
N130       Mn133   2.209       .  S
N131        C135   1.354       .  A
Mn132      Cl134   2.542   1_554  S
Mn133      Cl134   2.550   1_554  S
C135        C340   1.467       .  S
C136        C361   1.474       .  S
C137        C304   1.523       .  S
C137        C433   1.524       .  S
C137        C538   1.526       .  S
C137        C739   1.519       .  S
N138        N139   1.317       .  A
N138        N144   1.316       .  A
N138       Mn167   2.181       .  S
N139        C146   1.350       .  A
N140        N142   1.317       .  A
N140        N141   1.323       .  A
N140       Mn156   2.213   1_565  S
N141        C147   1.354       .  A
N142        N143   1.318       .  A
N142       Mn167   2.197   1_565  S
N143        C147   1.349       .  A
N144        N145   1.318       .  A
N144       Mn156   2.195       .  S
N145        C146   1.350       .  A
C146        C451   1.457       .  S
C147        C235   1.468       .  S
N148        N154   1.316       .  A
N148        N149   1.320       .  A
N148       Mn178   2.198   1_565  S
N149        C157   1.351       .  A
N150        N151   1.321       .  A
N150        N152   1.316       .  A
N150       Mn156   2.208       .  S
N151        C158   1.353       .  A
N152        N153   1.321       .  A
N152       Mn178   2.202       .  S
N153        C158   1.353       .  A
N154        N155   1.321       .  A
N154       Mn156   2.202   1_565  S
N155        C157   1.353       .  A
Mn156      Cl180   2.549       .  S
C157        C271   1.467       .  S
C158        C289   1.471       .  S
N159        N160   1.318       .  A
N159        N165   1.315       .  A
N159       Mn167   2.189   1_465  S
N160        C168   1.350       .  A
N161        N163   1.316       .  A
N161        N162   1.321       .  A
N161       Mn179   2.203       .  S
N162        C169   1.352       .  A
N163        N164   1.321       .  A
N163       Mn167   2.204   1_455  S
N164        C169   1.353       .  A
N165        N166   1.320       .  A
N165       Mn179   2.198   1_565  S
N166        C168   1.352       .  A
Mn167      Cl180   2.540       .  S
C168        C307   1.462       .  S
C169        C199   1.470       .  S
N170        N171   1.321       .  A
N170        N176   1.316       .  A
N170       Mn178   2.202   1_455  S
N171        C181   1.351       .  A
N172        N173   1.317       .  A
N172        N174   1.316       .  A
N172       Mn179   2.190   1_565  S
N173        C182   1.350       .  A
N174        N175   1.321       .  A
N174       Mn178   2.199   1_465  S
N175        C182   1.352       .  A
N176        N177   1.319       .  A
N176       Mn179   2.193       .  S
N177        C181   1.350       .  A
Mn178      Cl180   2.540       .  S
Mn179      Cl180   2.548   1_455  S
C181        C214   1.463       .  S
C182        C253   1.460       .  S
C183        C268   1.527       .  S
C183        C412   1.537       .  S
C183        C523   1.530       .  S
C183        C703   1.534       .  S
C184        C217   1.529       .  S
C184        C343   1.533       .  S
C184        C487   1.542       .  S
C184        C757   1.529       .  S
C185        C286   1.528       .  S
C185        C322   1.529       .  S
C185        C595   1.523       .  S
C185        C664   1.528       .  S
C186        C250   1.520       .  S
C186        C358   1.527       .  S
C186        C502   1.524       .  S
C186        C685   1.525       .  S
C187        C196   1.530       .  S
C187        C397   1.525       .  S
C187        C574   1.525       .  S
C187        C649   1.523       .  S
C188        C232   1.528       .  S
C188        C376   1.524       .  S
C188        C559   1.524       .  S
C188        C631   1.525       .  S
C189        N195   1.344       .  A
C189        C194   1.382       .  A
C189        C190   1.405       .  A
C190        C191   1.404       .  A
C190        H201   1.082       .  S
C191        C200   1.380       .  A
C191        C192   1.385       .  A
C192        N198   1.343       .  A
C192        C193   1.403       .  A
C193        C194   1.402       .  A
C193        H202   1.082       .  S
C194        C197   1.375       .  A
N195        C196   1.361       .  A
N195        H205   1.043       .  S
C196        C197   1.400       .  A
C197        H203   1.082       .  S
N198        C199   1.355       .  A
N198        H206   1.045       .  S
C199        C200   1.395       .  A
C200        H204   1.082       .  S
C207        N213   1.343       .  A
C207        C212   1.385       .  A
C207        C208   1.402       .  A
C208        C209   1.402       .  A
C208        H219   1.082       .  S
C209        C218   1.374       .  A
C209        C210   1.381       .  A
C210        N216   1.340       .  A
C210        C211   1.401       .  A
C211        C212   1.400       .  A
C211        H220   1.082       .  S
C212        C215   1.374       .  A
N213        C214   1.354       .  A
N213        H223   1.045       .  S
C214        C215   1.392       .  A
C215        H221   1.082       .  S
N216        C217   1.359       .  A
N216        H224   1.043       .  S
C217        C218   1.404       .  A
C218        H222   1.080       .  S
C225        N231   1.342       .  A
C225        C230   1.382       .  A
C225        C226   1.402       .  A
C226        C227   1.402       .  A
C226        H237   1.082       .  S
C227        C236   1.375       .  A
C227        C228   1.385       .  A
C228        N234   1.345       .  A
C228        C229   1.403       .  A
C229        C230   1.403       .  A
C229        H238   1.082       .  S
C230        C233   1.374       .  A
N231        C232   1.358       .  A
N231        H241   1.045       .  S
C232        C233   1.403       .  A
C233        H239   1.081       .  S
N234        C235   1.355       .  A
N234        H242   1.045       .  S
C235        C236   1.394       .  A
C236        H240   1.082       .  S
C243        N249   1.337       .  A
C243        C248   1.383       .  A
C243        C244   1.397       .  A
C244        C245   1.396       .  A
C244        H255   1.082       .  S
C245        C254   1.369       .  A
C245        C246   1.385       .  A
C246        N252   1.344       .  A
C246        C247   1.404       .  A
C247        C248   1.403       .  A
C247        H256   1.082       .  S
C248        C251   1.376       .  A
N249        C250   1.355       .  A
N249        H259   1.045       .  S
C250        C251   1.403       .  A
C251        H257   1.082       .  S
N252        C253   1.355       .  A
N252        H260   1.045       .  S
C253        C254   1.390       .  A
C254        H258   1.083       .  S
C261        N267   1.344       .  A
C261        C266   1.383       .  A
C261        C262   1.405       .  A
C262        C263   1.404       .  A
C262        H273   1.082       .  S
C263        C272   1.379       .  A
C263        C264   1.385       .  A
C264        N270   1.342       .  A
C264        C265   1.400       .  A
C265        C266   1.399       .  A
C265        H274   1.082       .  S
C266        C269   1.373       .  A
N267        C268   1.360       .  A
N267        H277   1.044       .  S
C268        C269   1.398       .  A
C269        H275   1.082       .  S
N270        C271   1.353       .  A
N270        H278   1.045       .  S
C271        C272   1.396       .  A
C272        H276   1.082       .  S
C279        N285   1.344       .  A
C279        C284   1.383       .  A
C279        C280   1.405       .  A
C280        C281   1.404       .  A
C280        H291   1.082       .  S
C281        C290   1.380       .  A
C281        C282   1.385       .  A
C282        N288   1.343       .  A
C282        C283   1.403       .  A
C283        C284   1.402       .  A
C283        H292   1.082       .  S
C284        C287   1.376       .  A
N285        C286   1.360       .  A
N285        H295   1.044       .  S
C286        C287   1.400       .  A
C287        H293   1.082       .  S
N288        C289   1.355       .  A
N288        H296   1.045       .  S
C289        C290   1.395       .  A
C290        H294   1.082       .  S
C297        N303   1.340       .  A
C297        C302   1.383       .  A
C297        C298   1.400       .  A
C298        C299   1.400       .  A
C298        H309   1.082       .  S
C299        C308   1.373       .  A
C299        C300   1.385       .  A
C300        N306   1.343       .  A
C300        C301   1.402       .  A
C301        C302   1.401       .  A
C301        H310   1.082       .  S
C302        C305   1.374       .  A
N303        C304   1.357       .  A
N303        H313   1.045       .  S
C304        C305   1.402       .  A
C305        H311   1.082       .  S
N306        C307   1.354       .  A
N306        H314   1.045       .  S
C307        C308   1.392       .  A
C308        H312   1.083       .  S
C315        N321   1.344       .  A
C315        C320   1.383       .  A
C315        C316   1.404       .  A
C316        C317   1.403       .  A
C316        H327   1.082       .  S
C317        C326   1.379       .  A
C317        C318   1.385       .  A
C318        N324   1.342       .  A
C318        C319   1.402       .  A
C319        C320   1.401       .  A
C319        H328   1.083       .  S
C320        C323   1.374       .  A
N321        C322   1.360       .  A
N321        H331   1.043       .  S
C322        C323   1.400       .  A
C323        H329   1.083       .  S
N324        C325   1.354       .  A
N324        H332   1.045       .  S
C325        C326   1.393       .  A
C326        H330   1.082       .  S
C333        N339   1.345       .  A
C333        C338   1.384       .  A
C333        C334   1.406       .  A
C334        C335   1.406       .  A
C334        H345   1.083       .  S
C335        C344   1.377       .  A
C335        C336   1.381       .  A
C336        N342   1.339       .  A
C336        C337   1.399       .  A
C337        C338   1.397       .  A
C337        H346   1.082       .  S
C338        C341   1.374       .  A
N339        C340   1.357       .  A
N339        H349   1.045       .  S
C340        C341   1.391       .  A
C341        H347   1.082       .  S
N342        C343   1.358       .  A
N342        H350   1.040       .  S
C343        C344   1.406       .  A
C344        H348   1.082       .  S
C351        N357   1.341       .  A
C351        C356   1.382       .  A
C351        C352   1.401       .  A
C352        C353   1.400       .  A
C352        H363   1.082       .  S
C353        C362   1.376       .  A
C353        C354   1.384       .  A
C354        N360   1.347       .  A
C354        C355   1.407       .  A
C355        C356   1.407       .  A
C355        H364   1.082       .  S
C356        C359   1.380       .  A
N357        C358   1.357       .  A
N357        H367   1.045       .  S
C358        C359   1.405       .  A
C359        H365   1.082       .  S
N360        C361   1.358       .  A
N360        H368   1.045       .  S
C361        C362   1.393       .  A
C362        H366   1.082       .  S
C369        N375   1.340       .  A
C369        C374   1.383       .  A
C369        C370   1.401       .  A
C370        C371   1.400       .  A
C370        H381   1.082       .  S
C371        C380   1.376       .  A
C371        C372   1.385       .  A
C372        N378   1.344       .  A
C372        C373   1.405       .  A
C373        C374   1.404       .  A
C373        H382   1.082       .  S
C374        C377   1.380       .  A
N375        C376   1.357       .  A
N375        H385   1.045       .  S
C376        C377   1.403       .  A
C377        H383   1.082       .  S
N378        C379   1.356       .  A
N378        H386   1.045       .  S
C379        C380   1.392       .  A
C380        H384   1.082       .  S
C387        N393   1.343       .  A
C387        C392   1.385       .  A
C387        C388   1.404       .  A
C388        C389   1.403       .  A
C388        H399   1.083       .  S
C389        C398   1.377       .  A
C389        C390   1.382       .  A
C390        N396   1.341       .  A
C390        C391   1.401       .  A
C391        C392   1.400       .  A
C391        H400   1.082       .  S
C392        C395   1.377       .  A
N393        C394   1.356       .  A
N393        H403   1.045       .  S
C394        C395   1.393       .  A
C395        H401   1.082       .  S
N396        C397   1.357       .  A
N396        H404   1.045       .  S
C397        C398   1.403       .  A
C398        H402   1.082       .  S
C405        N411   1.345       .  A
C405        C410   1.381       .  A
C405        C406   1.406       .  A
C406        C407   1.405       .  A
C406        H417   1.082       .  S
C407        C416   1.380       .  A
C407        C408   1.386       .  A
C408        N414   1.341       .  A
C408        C409   1.400       .  A
C409        C410   1.399       .  A
C409        H418   1.082       .  S
C410        C413   1.371       .  A
N411        C412   1.361       .  A
N411        H421   1.045       .  S
C412        C413   1.402       .  A
C413        H419   1.082       .  S
N414        C415   1.352       .  A
N414        H422   1.045       .  S
C415        C416   1.393       .  A
C416        H420   1.082       .  S
C423        N429   1.343       .  A
C423        C428   1.385       .  A
C423        C424   1.402       .  A
C424        C425   1.401       .  A
C424        H435   1.082       .  S
C425        C434   1.374       .  A
C425        C426   1.382       .  A
C426        N432   1.342       .  A
C426        C427   1.403       .  A
C427        C428   1.403       .  A
C427        H436   1.082       .  S
C428        C431   1.378       .  A
N429        C430   1.355       .  A
N429        H439   1.045       .  S
C430        C431   1.394       .  A
C431        H437   1.082       .  S
N432        C433   1.358       .  A
N432        H440   1.045       .  S
C433        C434   1.401       .  A
C434        H438   1.081       .  S
C441        N447   1.339       .  A
C441        C446   1.384       .  A
C441        C442   1.399       .  A
C442        C443   1.397       .  A
C442        H453   1.082       .  S
C443        C452   1.372       .  A
C443        C444   1.385       .  A
C444        N450   1.341       .  A
C444        C445   1.401       .  A
C445        C446   1.401       .  A
C445        H454   1.082       .  S
C446        C449   1.374       .  A
N447        C448   1.357       .  A
N447        H457   1.044       .  S
C448        C449   1.400       .  A
C449        H455   1.082       .  S
N450        C451   1.353       .  A
N450        H458   1.045       .  S
C451        C452   1.391       .  A
C452        H456   1.083       .  S
C459        N465   1.342       .  A
C459        C464   1.385       .  A
C459        C460   1.402       .  A
C460        C461   1.401       .  A
C460        H471   1.083       .  S
C461        C470   1.373       .  A
C461        C462   1.381       .  A
C462        N468   1.347       .  A
C462        C463   1.408       .  A
C463        C464   1.408       .  A
C463        H472   1.082       .  S
C464        C467   1.385       .  A
N465        C466   1.353       .  A
N465        H475   1.045       .  S
C466        C467   1.396       .  A
C467        H473   1.082       .  S
N468        C469   1.362       .  A
N468        H476   1.045       .  S
C469        C470   1.405       .  A
C470        H474   1.082       .  S
C477        N483   1.342       .  A
C477        C482   1.385       .  A
C477        C478   1.402       .  A
C478        C479   1.401       .  A
C478        H489   1.082       .  S
C479        C488   1.376       .  A
C479        C480   1.380       .  A
C480        N486   1.344       .  A
C480        C481   1.408       .  A
C481        C482   1.407       .  A
C481        H490   1.082       .  S
C482        C485   1.384       .  A
N483        C484   1.353       .  A
N483        H493   1.045       .  S
C484        C485   1.396       .  A
C485        H491   1.082       .  S
N486        C487   1.363       .  A
N486        H494   1.045       .  S
C487        C488   1.404       .  A
C488        H492   1.082       .  S
C495        N501   1.345       .  A
C495        C500   1.383       .  A
C495        C496   1.406       .  A
C496        C497   1.406       .  A
C496        H507   1.082       .  S
C497        C506   1.381       .  A
C497        C498   1.385       .  A
C498        N504   1.338       .  A
C498        C499   1.397       .  A
C499        C500   1.396       .  A
C499        H508   1.082       .  S
C500        C503   1.368       .  A
N501        C502   1.361       .  A
N501        H511   1.043       .  S
C502        C503   1.397       .  A
C503        H509   1.083       .  S
N504        C505   1.351       .  A
N504        H512   1.045       .  S
C505        C506   1.396       .  A
C506        H510   1.082       .  S
C513        N519   1.345       .  A
C513        C518   1.385       .  A
C513        C514   1.405       .  A
C514        C515   1.405       .  A
C514        H525   1.082       .  S
C515        C524   1.378       .  A
C515        C516   1.381       .  A
C516        N522   1.338       .  A
C516        C517   1.400       .  A
C517        C518   1.399       .  A
C517        H526   1.083       .  S
C518        C521   1.374       .  A
N519        C520   1.356       .  A
N519        H529   1.045       .  S
C520        C521   1.392       .  A
C521        H527   1.082       .  S
N522        C523   1.358       .  A
N522        H530   1.048       .  S
C523        C524   1.406       .  A
C524        H528   1.080       .  S
C531        N537   1.342       .  A
C531        C536   1.382       .  A
C531        C532   1.405       .  A
C532        C533   1.404       .  A
C532        H543   1.083       .  S
C533        C542   1.380       .  A
C533        C534   1.385       .  A
C534        N540   1.342       .  A
C534        C535   1.401       .  A
C535        C536   1.400       .  A
C535        H544   1.082       .  S
C536        C539   1.375       .  A
N537        C538   1.360       .  A
N537        H547   1.045       .  S
C538        C539   1.400       .  A
C539        H545   1.081       .  S
N540        C541   1.353       .  A
N540        H548   1.045       .  S
C541        C542   1.396       .  A
C542        H546   1.083       .  S
C549        N555   1.343       .  A
C549        C554   1.385       .  A
C549        C550   1.403       .  A
C550        C551   1.403       .  A
C550        H561   1.082       .  S
C551        C560   1.377       .  A
C551        C552   1.383       .  A
C552        N558   1.340       .  A
C552        C553   1.402       .  A
C553        C554   1.401       .  A
C553        H562   1.082       .  S
C554        C557   1.376       .  A
N555        C556   1.355       .  A
N555        H565   1.045       .  S
C556        C557   1.393       .  A
C557        H563   1.082       .  S
N558        C559   1.357       .  A
N558        H566   1.045       .  S
C559        C560   1.402       .  A
C560        H564   1.081       .  S
C567        N573   1.344       .  A
C567        C572   1.382       .  A
C567        C568   1.405       .  A
C568        C569   1.405       .  A
C568        H579   1.082       .  S
C569        C578   1.380       .  A
C569        C570   1.385       .  A
C570        N576   1.342       .  A
C570        C571   1.401       .  A
C571        C572   1.400       .  A
C571        H580   1.082       .  S
C572        C575   1.373       .  A
N573        C574   1.361       .  A
N573        H583   1.044       .  S
C574        C575   1.398       .  A
C575        H581   1.082       .  S
N576        C577   1.353       .  A
N576        H584   1.045       .  S
C577        C578   1.396       .  A
C578        H582   1.082       .  S
C585        N591   1.342       .  A
C585        C590   1.385       .  A
C585        C586   1.402       .  A
C586        C587   1.401       .  A
C586        H597   1.082       .  S
C587        C596   1.376       .  A
C587        C588   1.382       .  A
C588        N594   1.341       .  A
C588        C589   1.403       .  A
C589        C590   1.402       .  A
C589        H598   1.082       .  S
C590        C593   1.378       .  A
N591        C592   1.354       .  A
N591        H601   1.045       .  S
C592        C593   1.395       .  A
C593        H599   1.082       .  S
N594        C595   1.358       .  A
N594        H602   1.045       .  S
C595        C596   1.401       .  A
C596        H600   1.082       .  S
C603        N609   1.343       .  A
C603        C608   1.385       .  A
C603        C604   1.401       .  A
C604        C605   1.400       .  A
C604        H615   1.082       .  S
C605        C614   1.370       .  A
C605        C606   1.380       .  A
C606        N612   1.346       .  A
C606        C607   1.406       .  A
C607        C608   1.406       .  A
C607        H616   1.082       .  S
C608        C611   1.381       .  A
N609        C610   1.354       .  A
N609        H619   1.045       .  S
C610        C611   1.397       .  A
C611        H617   1.082       .  S
N612        C613   1.363       .  A
N612        H620   1.042       .  S
C613        C614   1.402       .  A
C614        H618   1.079       .  S
C621        N627   1.340       .  A
C621        C626   1.385       .  A
C621        C622   1.400       .  A
C622        C623   1.399       .  A
C622        H633   1.082       .  S
C623        C632   1.372       .  A
C623        C624   1.383       .  A
C624        N630   1.343       .  A
C624        C625   1.404       .  A
C625        C626   1.403       .  A
C625        H634   1.082       .  S
C626        C629   1.379       .  A
N627        C628   1.353       .  A
N627        H637   1.045       .  S
C628        C629   1.395       .  A
C629        H635   1.082       .  S
N630        C631   1.360       .  A
N630        H638   1.044       .  S
C631        C632   1.398       .  A
C632        H636   1.083       .  S
C639        N645   1.341       .  A
C639        C644   1.385       .  A
C639        C640   1.402       .  A
C640        C641   1.400       .  A
C640        H651   1.082       .  S
C641        C650   1.375       .  A
C641        C642   1.382       .  A
C642        N648   1.339       .  A
C642        C643   1.401       .  A
C643        C644   1.400       .  A
C643        H652   1.082       .  S
C644        C647   1.375       .  A
N645        C646   1.354       .  A
N645        H655   1.045       .  S
C646        C647   1.393       .  A
C647        H653   1.082       .  S
N648        C649   1.358       .  A
N648        H656   1.045       .  S
C649        C650   1.401       .  A
C650        H654   1.082       .  S
C657        N663   1.342       .  A
C657        C662   1.382       .  A
C657        C658   1.403       .  A
C658        C659   1.402       .  A
C658        H669   1.082       .  S
C659        C668   1.379       .  A
C659        C660   1.385       .  A
C660        N666   1.342       .  A
C660        C661   1.403       .  A
C661        C662   1.402       .  A
C661        H670   1.082       .  S
C662        C665   1.377       .  A
N663        C664   1.360       .  A
N663        H673   1.044       .  S
C664        C665   1.401       .  A
C665        H671   1.082       .  S
N666        C667   1.355       .  A
N666        H674   1.045       .  S
C667        C668   1.394       .  A
C668        H672   1.082       .  S
C675        N681   1.344       .  A
C675        C680   1.385       .  A
C675        C676   1.403       .  A
C676        C677   1.403       .  A
C676        H687   1.082       .  S
C677        C686   1.375       .  A
C677        C678   1.383       .  A
C678        N684   1.341       .  A
C678        C679   1.400       .  A
C679        C680   1.400       .  A
C679        H688   1.082       .  S
C680        C683   1.373       .  A
N681        C682   1.355       .  A
N681        H691   1.045       .  S
C682        C683   1.393       .  A
C683        H689   1.082       .  S
N684        C685   1.357       .  A
N684        H692   1.045       .  S
C685        C686   1.402       .  A
C686        H690   1.082       .  S
C693        N699   1.344       .  A
C693        C698   1.385       .  A
C693        C694   1.402       .  A
C694        C695   1.402       .  A
C694        H705   1.082       .  S
C695        C704   1.375       .  A
C695        C696   1.380       .  A
C696        N702   1.341       .  A
C696        C697   1.403       .  A
C697        C698   1.402       .  A
C697        H706   1.083       .  S
C698        C701   1.376       .  A
N699        C700   1.354       .  A
N699        H709   1.045       .  S
C700        C701   1.394       .  A
C701        H707   1.083       .  S
N702        C703   1.360       .  A
N702        H710   1.044       .  S
C703        C704   1.404       .  A
C704        H708   1.079       .  S
C711        N717   1.342       .  A
C711        C716   1.385       .  A
C711        C712   1.402       .  A
C712        C713   1.402       .  A
C712        H723   1.083       .  S
C713        C722   1.371       .  A
C713        C714   1.381       .  A
C714        N720   1.342       .  A
C714        C715   1.402       .  A
C715        C716   1.401       .  A
C715        H724   1.082       .  S
C716        C719   1.376       .  A
N717        C718   1.355       .  A
N717        H727   1.045       .  S
C718        C719   1.392       .  A
C719        H725   1.082       .  S
N720        C721   1.360       .  A
N720        H728   1.042       .  S
C721        C722   1.403       .  A
C722        H726   1.079       .  S
C729        N735   1.342       .  A
C729        C734   1.385       .  A
C729        C730   1.401       .  A
C730        C731   1.400       .  A
C730        H741   1.082       .  S
C731        C740   1.375       .  A
C731        C732   1.383       .  A
C732        N738   1.339       .  A
C732        C733   1.401       .  A
C733        C734   1.399       .  A
C733        H742   1.083       .  S
C734        C737   1.374       .  A
N735        C736   1.353       .  A
N735        H745   1.045       .  S
C736        C737   1.393       .  A
C737        H743   1.083       .  S
N738        C739   1.357       .  A
N738        H746   1.045       .  S
C739        C740   1.400       .  A
C740        H744   1.082       .  S
C747        N753   1.345       .  A
C747        C752   1.385       .  A
C747        C748   1.406       .  A
C748        C749   1.405       .  A
C748        H759   1.082       .  S
C749        C758   1.379       .  A
C749        C750   1.383       .  A
C750        N756   1.340       .  A
C750        C751   1.400       .  A
C751        C752   1.399       .  A
C751        H760   1.082       .  S
C752        C755   1.374       .  A
N753        C754   1.356       .  A
N753        H763   1.045       .  S
C754        C755   1.392       .  A
C755        H761   1.082       .  S
N756        C757   1.357       .  A
N756        H764   1.045       .  S
C757        C758   1.402       .  A
C758        H762   1.082       .  S
