geometry optimzed in LAMMPS
_audit_creation_date              2020-11-30 
_audit_creation_method            'lammps2cif' 
_symmetry_space_group_name_H-M    'P1' 
_symmetry_Int_Tables_number       1 
_symmetry_cell_setting            triclinic 
loop_ 
_symmetry_equiv_pos_as_xyz 
  x,y,z 
_cell_length_a                    31.53796181 
_cell_length_b                    31.970484131092388 
_cell_length_c                    30.659925280369535 
_cell_angle_alpha                 89.23325099910508 
_cell_angle_beta                  91.29113811075953 
_cell_angle_gamma                 90.33261481762143 
loop_ 
_atom_site_label 
_atom_site_type_symbol 
_atom_site_fract_x 
_atom_site_fract_y 
_atom_site_fract_z 
_atom_site_charge 
O1          O  0.45677291  0.41116041  0.48667562    -0.79700
O2          O  0.54888818  0.56760632  0.45384103    -0.79800
O3          O  0.45513131  0.54336953  0.42985667    -0.79800
O4          O  0.55106745  0.47440485  0.43958181    -0.79700
O5          O  0.46947076  0.59270907  0.47561800    -0.79800
O6          O  0.54161547  0.41957466  0.48324660    -0.79700
O7          O  0.60826274  0.53385064  0.46961998    -0.79700
O8          O  0.44709586  0.45805959  0.43445382    -0.79800
C9          C  0.44493492  0.42052019  0.44785281     1.10000
C10         C  0.58912611  0.56263850  0.44861382     1.09800
C11         C  0.45354113  0.58150775  0.43934098     1.10000
C12         C  0.55278601  0.43520920  0.44650277     1.09900
O13         O  0.54092283  0.46043036  0.57028540    -0.79700
O14         O  0.47515963  0.55487598  0.56000320    -0.79800
O15         O  0.40626249  0.46427945  0.51740784    -0.79700
O16         O  0.56842903  0.54711368  0.54556453    -0.79700
O17         O  0.53752545  0.60732863  0.53041427    -0.79800
O18         O  0.45530466  0.45498375  0.56862747    -0.79700
O19         O  0.59025859  0.46798213  0.52314722    -0.79700
O20         O  0.41824499  0.54825078  0.51699350    -0.79800
Co21       Co  0.49891914  0.44011525  0.52681440     1.51500
Co22       Co  0.51190810  0.55747617  0.50922403     1.51700
Co23       Co  0.43539245  0.50345343  0.47495727     1.51600
Co24       Co  0.55624536  0.51118226  0.48995720     1.51500
O25         O  0.49499197  0.49775896  0.49970481    -1.41700
C26         C  0.57895949  0.45587384  0.56048163     1.09900
C27         C  0.43585688  0.56012495  0.55277148     1.10000
C28         C  0.41692438  0.45334430  0.55618719     1.09900
C29         C  0.56481664  0.58669356  0.55257220     1.09900
O30         O  0.96057037  0.40355796  0.96914617    -0.79700
O31         O  0.05044954  0.56189098  0.95646166    -0.79800
O32         O  0.96083260  0.53866429  0.92241241    -0.79800
O33         O  0.05859184  0.46891802  0.93680127    -0.79700
O34         O  0.96932330  0.58489690  0.97236540    -0.79800
O35         O  0.04605757  0.41200981  0.97604138    -0.79700
O36         O  0.11017392  0.52916968  0.97347638    -0.79700
O37         O  0.95395392  0.45389524  0.92000476    -0.79800
C38         C  0.95138966  0.41563812  0.93034117     1.10000
C39         C  0.09109452  0.55858480  0.95310547     1.09800
C40         C  0.95660288  0.57584459  0.93428033     1.10000
C41         C  0.06126952  0.42956471  0.94201115     1.09900
O42         O  0.03628691  0.44706426  0.06385467    -0.79700
O43         O  0.96845124  0.54312858  0.05445393    -0.79800
O44         O  0.90573479  0.45403403  0.99910572    -0.79700
O45         O  0.06594908  0.53997561  0.04661320    -0.79700
O46         O  0.03136557  0.59829965  0.03225143    -0.79800
O47         O  0.95115121  0.44130823  0.05322164    -0.79700
O48         O  0.09026402  0.46016627  0.02393244    -0.79700
O49         O  0.91588021  0.53772046  0.00594006    -0.79800
Co50       Co  0.99862364  0.42969694  0.01533237     1.51500
Co51       Co  0.00956437  0.54857339  0.00762371     1.51700
Co52       Co  0.93801411  0.49598142  0.96267277     1.51600
Co53       Co  0.05797631  0.50419828  0.98920555     1.51500
O54         O  0.99577085  0.48931282  0.99276107    -1.41700
C55         C  0.07538461  0.44369407  0.05815200     1.09900
C56         C  0.92989650  0.54883585  0.04358877     1.10000
C57         C  0.91385870  0.44059206  0.03753658     1.09900
C58         C  0.06045180  0.57955957  0.05356612     1.09900
C59         C  0.74332871  0.24524064  0.74847283    -0.02100
O60         O  0.43845146  0.05477695  0.96708597    -0.79700
O61         O  0.44161804  0.95019996  0.02672969    -0.79800
O62         O  0.46353979  0.96698221  0.93342313    -0.79800
O63         O  0.48161257  0.03862676  0.10772424    -0.79700
O64         O  0.47779364  0.90486256  0.96208705    -0.79800
O65         O  0.43590200  0.05309185  0.05467852    -0.79700
O66         O  0.47728122  0.95519918  0.08982377    -0.79700
O67         O  0.48562800  0.04871392  0.91751340    -0.79800
C68         C  0.44916621  0.06095667  0.92836047     1.10000
C69         C  0.44450447  0.94351465  0.06754677     1.09800
C70         C  0.45802621  0.92687095  0.93399239     1.10000
C71         C  0.44524970  0.05139332  0.09480773     1.09900
O72         O  0.51842563  0.09371008  0.06035110    -0.79700
O73         O  0.55173781  0.94775923  0.96228263    -0.79800
O74         O  0.56580442  0.03968921  0.96361656    -0.79700
O75         O  0.56643731  0.96024832  0.05927709    -0.79700
O76         O  0.52167015  0.91304795  0.03799427    -0.79800
O77         O  0.52417218  0.09382494  0.97223886    -0.79700
O78         O  0.56521473  0.04346286  0.07128934    -0.79700
O79         O  0.54195593  0.98381086  0.90091927    -0.79800
Co80       Co  0.47961913  0.07018052  0.01338023     1.51500
Co81       Co  0.49444043  0.95262643  0.99418042     1.51700
Co82       Co  0.51641925  0.00315861  0.95261701     1.51600
Co83       Co  0.52226388  0.99970011  0.07808486     1.51500
O84         O  0.50229095  0.01109354  0.01574280    -1.41700
C85         C  0.55518106  0.08151173  0.07266823     1.09900
C86         C  0.56139485  0.95513565  0.92219218     1.10000
C87         C  0.55974454  0.07874270  0.96093267     1.09900
C88         C  0.55666798  0.92226247  0.05616222     1.09900
C89         C  0.26117765  0.74460352  0.74837344    -0.02100
O90         O  0.94731227  0.05204097  0.56686695    -0.79700
O91         O  0.02812931  0.89786939  0.53246460    -0.79800
O92         O  0.90847007  0.95697195  0.51728723    -0.79800
O93         O  0.08341407  0.03776165  0.52689049    -0.79700
O94         O  0.96461027  0.94818600  0.56084373    -0.79800
O95         O  0.03215119  0.04840970  0.57020878    -0.79700
O96         O  0.05806782  0.95768997  0.55068849    -0.79700
O97         O  0.89847541  0.04143061  0.51584322    -0.79800
C98         C  0.90913772  0.05294866  0.55418629     1.10000
C99         C  0.05529643  0.91746976  0.55552997     1.09800
C100        C  0.92521845  0.94355479  0.55310266     1.10000
C101        C  0.07062506  0.05294747  0.56194941     1.09900
O102        O  0.03537727  0.08768777  0.48205964    -0.79700
O103        O  0.96065743  0.91219202  0.47687418    -0.79800
O104        O  0.94160423  0.04626526  0.43312944    -0.79700
O105        O  0.10061945  0.97120640  0.47698800    -0.79700
O106        O  0.04127964  0.93960910  0.45681985    -0.79800
O107        O  0.94910560  0.09475206  0.48249899    -0.79700
O108        O  0.04840852  0.03190460  0.44228453    -0.79700
O109        O  0.94717750  0.96215986  0.43086432    -0.79800
Co110      Co  0.99111796  0.06699540  0.52483403     1.51500
Co111      Co  0.00273019  0.94777816  0.51089209     1.51700
Co112      Co  0.92772724  0.00184880  0.47487021     1.51600
Co113      Co  0.04901030  0.99470136  0.49419357     1.51500
O114        O  0.98711259  0.00817281  0.50068645    -1.41700
C115        C  0.05066215  0.07112656  0.44807344     1.09900
C116        C  0.94499301  0.92383276  0.44039202     1.10000
C117        C  0.93642752  0.08341703  0.44470473     1.09900
C118        C  0.08195131  0.94403579  0.45385743     1.09900
C119        C  0.76151425  0.73995577  0.23734097    -0.02100
C120        C  0.24853248  0.24390586  0.25545542    -0.02100
C121        C  0.74648785  0.27116432  0.25334983    -0.02100
C122        C  0.25068342  0.76159747  0.25184519    -0.02100
C123        C  0.24970666  0.25297533  0.74670762    -0.02100
C124        C  0.75043695  0.76062747  0.75773913    -0.02100
C125        C  0.18513109  0.15483986  0.71396275    -0.01600
C126        C  0.18194657  0.15737032  0.66825069     0.07000
C127        C  0.20355870  0.18934249  0.64649361    -0.07600
C128        C  0.22716960  0.21966764  0.66921039     0.04400
C129        C  0.22726571  0.22022925  0.71608053    -0.14800
C130        C  0.20768852  0.18550833  0.73712522    -0.08100
C131        C  0.15449535  0.12835905  0.64250992     0.05400
C132        C  0.11067036  0.12928345  0.64863568    -0.09300
C133        C  0.08292410  0.10478912  0.62338912     0.00400
C134        C  0.09905331  0.07808582  0.59108411     0.00200
C135        C  0.14317134  0.07705992  0.58526247    -0.12800
C136        C  0.17080700  0.10194975  0.61051108     0.00700
C137        C  0.03804767  0.10955724  0.63036877     0.40000
C138        C  0.21579050  0.09983739  0.60317860     0.36600
C139        C  0.16487234  0.12137670  0.73791833     0.36400
C140        C  0.25311653  0.24602856  0.64195353     0.37100
N141        N  0.00214019  0.11365230  0.63595911    -0.43700
N142        N  0.25187257  0.09836826  0.59734599    -0.44100
N143        N  0.27406772  0.26568733  0.61877387    -0.41500
N144        N  0.14854850  0.09454429  0.75702255    -0.42900
H145        H  0.20839559  0.18337317  0.77245720     0.13200
H146        H  0.20219730  0.19037130  0.61108325     0.09700
H147        H  0.09796421  0.15019379  0.67261731     0.10800
H148        H  0.15616602  0.05699727  0.56070910     0.16600
C149        C  0.08052016  0.15767781  0.36771918    -0.01600
C150        C  0.12356287  0.14863850  0.36016182     0.07000
C151        C  0.14223806  0.11448485  0.38223006    -0.07600
C152        C  0.11898031  0.08908541  0.41063286     0.04400
C153        C  0.07566894  0.09736923  0.41751931    -0.14800
C154        C  0.05701810  0.13218066  0.39635551    -0.08100
C155        C  0.15048218  0.17408045  0.33002902     0.05400
C156        C  0.15748621  0.21669032  0.33755445    -0.09300
C157        C  0.18643790  0.24016548  0.31276209     0.00400
C158        C  0.21254148  0.22029593  0.28162725     0.00200
C159        C  0.20136515  0.17827033  0.27159305    -0.12800
C160        C  0.17125057  0.15554208  0.29516759     0.00700
C161        C  0.18866476  0.28430915  0.32161364     0.40000
C162        C  0.16115884  0.11334480  0.28200218     0.36600
C163        C  0.05961813  0.19225947  0.34570041     0.36400
C164        C  0.14151099  0.05647232  0.43426779     0.37100
N165        N  0.18888051  0.31938801  0.33041274    -0.43700
N166        N  0.15278862  0.07966096  0.27130514    -0.44100
N167        N  0.16098069  0.03118680  0.45301922    -0.41500
N168        N  0.04302482  0.22008865  0.32801648    -0.42900
H169        H  0.02396454  0.13917752  0.40184038     0.13200
H170        H  0.17555941  0.10796033  0.37764749     0.09700
H171        H  0.14057246  0.23169635  0.36343559     0.10800
H172        H  0.21524143  0.16253886  0.24442914     0.16600
C173        C  0.82771603  0.90370648  0.61112541    -0.01600
C174        C  0.84491799  0.87306417  0.63987121     0.07000
C175        C  0.88863266  0.86581802  0.64007469    -0.07600
C176        C  0.91550708  0.88901064  0.61338303     0.04400
C177        C  0.89853247  0.91951409  0.58405915    -0.14800
C178        C  0.85439520  0.92603456  0.58308401    -0.08100
C179        C  0.81844949  0.84743914  0.66972250     0.05400
C180        C  0.78425472  0.82431352  0.65275401    -0.09300
C181        C  0.75993202  0.79806346  0.67944145     0.00400
C182        C  0.77260182  0.79075152  0.72410847     0.00200
C183        C  0.80538675  0.81684372  0.74093859    -0.12800
C184        C  0.82793103  0.84464127  0.71469072     0.00700
C185        C  0.72024852  0.78407015  0.66011241     0.40000
C186        C  0.86034615  0.87041988  0.73502304     0.36600
C187        C  0.78314026  0.91375489  0.61072010     0.36400
C188        C  0.96003754  0.87951368  0.61693606     0.37100
N189        N  0.68836197  0.77403230  0.64387439    -0.43700
N190        N  0.88630204  0.89103639  0.75134907    -0.44100
N191        N  0.99536435  0.87072520  0.62153739    -0.41500
N192        N  0.74739430  0.92175475  0.61042184    -0.42900
H193        H  0.84074735  0.94944609  0.56111739     0.13200
H194        H  0.90194481  0.84167936  0.66142267     0.09700
H195        H  0.77586322  0.82748160  0.61835360     0.10800
H196        H  0.81424775  0.81486094  0.77517960     0.16600
C197        C  0.21065247  0.86005394  0.31211102    -0.01600
C198        C  0.18425946  0.84224302  0.34356496     0.07000
C199        C  0.18205810  0.79887571  0.34821727    -0.07600
C200        C  0.20375159  0.77274522  0.32016181     0.04400
C201        C  0.22777315  0.79008654  0.28505096    -0.14800
C202        C  0.23254893  0.83426191  0.28401069    -0.08100
C203        C  0.15828113  0.86835737  0.37180454     0.05400
C204        C  0.11540923  0.87442616  0.36068487    -0.09300
C205        C  0.08962053  0.89896062  0.38661693     0.00400
C206        C  0.10708341  0.91818828  0.42427723     0.00200
C207        C  0.15019348  0.91178452  0.43515106    -0.12800
C208        C  0.17564947  0.88685539  0.40950805     0.00700
C209        C  0.04595376  0.90454718  0.37290536     0.40000
C210        C  0.21921741  0.87978302  0.42295674     0.36600
C211        C  0.21570541  0.90487339  0.30803213     0.36400
C212        C  0.19712598  0.72835603  0.32650822     0.37100
N213        N  0.01108394  0.90873423  0.36124296    -0.43700
N214        N  0.25407812  0.87382880  0.43375817    -0.44100
N215        N  0.19059011  0.69307194  0.33225933    -0.41500
N216        N  0.21984766  0.94076389  0.30480735    -0.42900
H217        H  0.25395499  0.84961896  0.26196132     0.13200
H218        H  0.16231378  0.78533374  0.37334660     0.09700
H219        H  0.10215263  0.85999566  0.33155942     0.10800
H220        H  0.16397411  0.92562000  0.46434074     0.16600
C221        C  0.88181762  0.88624645  0.34107288    -0.01600
C222        C  0.87056557  0.84501489  0.35283296     0.07000
C223        C  0.88551918  0.82857541  0.39297333    -0.07600
C224        C  0.91047431  0.85290597  0.42179147     0.04400
C225        C  0.92139268  0.89470275  0.41033207    -0.14800
C226        C  0.90687586  0.91047980  0.36951705    -0.08100
C227        C  0.84352438  0.81856842  0.32345160     0.05400
C228        C  0.86249536  0.78750655  0.29911683    -0.09300
C229        C  0.83875771  0.76187237  0.27056336     0.00400
C230        C  0.79358702  0.76706775  0.26552090     0.00200
C231        C  0.77521388  0.79822385  0.29168364    -0.12800
C232        C  0.79945722  0.82401082  0.31938799     0.00700
C233        C  0.86322381  0.72999077  0.25004040     0.40000
C234        C  0.77832194  0.85601736  0.34338918     0.36600
C235        C  0.86812402  0.90439287  0.29979380     0.36400
C236        C  0.92324470  0.83429626  0.46315669     0.37100
N237        N  0.88442603  0.70485755  0.23480608    -0.43700
N238        N  0.76143874  0.88185469  0.36243841    -0.44100
N239        N  0.93329060  0.81923667  0.49631446    -0.41500
N240        N  0.85722806  0.91910589  0.26675653    -0.42900
H241        H  0.91484065  0.94219997  0.35966511     0.13200
H242        H  0.87707261  0.79676154  0.40210899     0.09700
H243        H  0.89651656  0.78314892  0.30270615     0.10800
H244        H  0.74124420  0.80311493  0.28971148     0.16600
C245        C  0.80007420  0.22022904  0.35694684    -0.01600
C246        C  0.83114751  0.19484927  0.33881743     0.07000
C247        C  0.83416649  0.19321250  0.29352948    -0.07600
C248        C  0.80782073  0.21732389  0.26599608     0.04400
C249        C  0.77706941  0.24481905  0.28364707    -0.14800
C250        C  0.77335263  0.24433561  0.32967948    -0.08100
C251        C  0.85902085  0.16730505  0.36604897     0.05400
C252        C  0.85413907  0.12403404  0.36202019    -0.09300
C253        C  0.87965876  0.09636295  0.38631438     0.00400
C254        C  0.91099036  0.11199194  0.41597071     0.00200
C255        C  0.91606174  0.15554598  0.41966809    -0.12800
C256        C  0.89076201  0.18317804  0.39454233     0.00700
C257        C  0.87155981  0.05215833  0.38088807     0.40000
C258        C  0.89872204  0.22757328  0.39730405     0.36600
C259        C  0.79368241  0.22065140  0.40344598     0.36400
C260        C  0.81518708  0.21423508  0.21980996     0.37100
N261        N  0.86503890  0.01679994  0.37635115    -0.43700
N262        N  0.90504817  0.26320407  0.39911257    -0.44100
N263        N  0.82224068  0.21127780  0.18310040    -0.41500
N264        N  0.78848722  0.22108382  0.44068230    -0.42900
H265        H  0.74856414  0.26132809  0.34522409     0.13200
H266        H  0.85769350  0.17302817  0.27954276     0.09700
H267        H  0.82989666  0.11180991  0.33988602     0.10800
H268        H  0.94007891  0.16801395  0.44185629     0.16600
C269        C  0.11428722  0.82662705  0.60843253    -0.01600
C270        C  0.13892933  0.84591177  0.64174764     0.07000
C271        C  0.13446023  0.88913287  0.64790484    -0.07600
C272        C  0.10648158  0.91304628  0.62156794     0.04400
C273        C  0.08320720  0.89397739  0.58708928    -0.14800
C274        C  0.08737156  0.85064312  0.58144747    -0.08100
C275        C  0.17041911  0.82163830  0.66904732     0.05400
C276        C  0.19920575  0.79608037  0.64810889    -0.09300
C277        C  0.22558947  0.76832350  0.67138632     0.00400
C278        C  0.22943890  0.77033924  0.71795424     0.00200
C279        C  0.20030766  0.79696241  0.73864073    -0.12800
C280        C  0.17074888  0.82147913  0.71501336     0.00700
C281        C  0.24080383  0.73435596  0.64580881     0.40000
C282        C  0.14008456  0.84486193  0.73886409     0.36600
C283        C  0.11562986  0.78208407  0.60116363     0.36400
C284        C  0.10135008  0.95651208  0.63210539     0.37100
N285        N  0.25068649  0.70646858  0.62476389    -0.43700
N286        N  0.11540251  0.86349737  0.75796872    -0.44100
N287        N  0.09726129  0.99110751  0.64166183    -0.41500
N288        N  0.11702120  0.74648463  0.59501587    -0.42900
H289        H  0.06963317  0.83521335  0.55550148     0.13200
H290        H  0.15312832  0.90439574  0.67326882     0.09700
H291        H  0.19883279  0.79550552  0.61271879     0.10800
H292        H  0.20057343  0.79842510  0.77395736     0.16600
C293        C  0.59766117  0.16518920  0.14707731    -0.01600
C294        C  0.64186740  0.16040939  0.14310798     0.07000
C295        C  0.65739145  0.13168973  0.11332910    -0.07600
C296        C  0.62960796  0.10704724  0.08837600     0.04400
C297        C  0.58536367  0.11096599  0.09321270    -0.14800
C298        C  0.56983095  0.14075156  0.12190351    -0.08100
C299        C  0.67232400  0.18488271  0.17006259     0.05400
C300        C  0.67231372  0.17986280  0.21540621    -0.09300
C301        C  0.69757450  0.20520349  0.24239608     0.00400
C302        C  0.72338842  0.23757938  0.22400598     0.00200
C303        C  0.72695609  0.23789556  0.17791037    -0.12800
C304        C  0.70104367  0.21309083  0.15121258     0.00700
C305        C  0.69348462  0.19875438  0.28883276     0.40000
C306        C  0.70330911  0.21852395  0.10444405     0.36600
C307        C  0.58013843  0.19454330  0.17713263     0.36400
C308        C  0.64731558  0.07823323  0.05787807     0.37100
N309        N  0.68938373  0.19292502  0.32584140    -0.43700
N310        N  0.70504561  0.22292162  0.06699690    -0.44100
N311        N  0.66150786  0.05516408  0.03344008    -0.41500
N312        N  0.56611447  0.21785502  0.20142623    -0.42900
H313        H  0.53591181  0.14372316  0.12604054     0.13200
H314        H  0.69135195  0.12809375  0.11009317     0.09700
H315        H  0.65138064  0.15673144  0.22985871     0.10800
H316        H  0.74981763  0.25751323  0.16167627     0.16600
C317        C  0.40387128  0.12359206  0.18012123    -0.01600
C318        C  0.35954653  0.12003425  0.17334062     0.07000
C319        C  0.34360526  0.09011503  0.14408713    -0.07600
C320        C  0.37105160  0.06520199  0.12032220     0.04400
C321        C  0.41542654  0.06995687  0.12572189    -0.14800
C322        C  0.43132879  0.09827896  0.15676700    -0.08100
C323        C  0.32954215  0.14957284  0.19345489     0.05400
C324        C  0.30824616  0.17864062  0.16656976    -0.09300
C325        C  0.28184503  0.20939464  0.18363486     0.00400
C326        C  0.27493752  0.21085166  0.22970380     0.00200
C327        C  0.29643734  0.18026157  0.25594355    -0.12800
C328        C  0.32320681  0.15034282  0.23855773     0.00700
C329        C  0.26664149  0.23998146  0.15212118     0.40000
C330        C  0.34394880  0.12078808  0.26784148     0.36600
C331        C  0.42196153  0.15507226  0.20842931     0.36400
C332        C  0.35297890  0.03529581  0.09019010     0.37100
N333        N  0.25595487  0.26408206  0.12563553    -0.43700
N334        N  0.36073829  0.09731543  0.29142363    -0.44100
N335        N  0.33863552  0.01122459  0.06608187    -0.41500
N336        N  0.43635233  0.18037872  0.23108013    -0.42900
H337        H  0.46532910  0.10270892  0.16065426     0.13200
H338        H  0.30959543  0.08707013  0.13892564     0.09700
H339        H  0.31379072  0.17830604  0.13175610     0.10800
H340        H  0.29237788  0.17997501  0.29097273     0.16600
C341        C  0.36446840  0.90753203  0.15040873    -0.01600
C342        C  0.35321049  0.86752271  0.13492817     0.07000
C343        C  0.37030152  0.85361120  0.09604671    -0.07600
C344        C  0.39927411  0.87826941  0.07311891     0.04400
C345        C  0.41138401  0.91809877  0.08895527    -0.14800
C346        C  0.39361842  0.93235010  0.12756285    -0.08100
C347        C  0.32680697  0.83816274  0.16079717     0.05400
C348        C  0.28295478  0.84365640  0.16193891    -0.09300
C349        C  0.25755567  0.81775681  0.18807797     0.00400
C350        C  0.27647924  0.78713236  0.21676826     0.00200
C351        C  0.32002764  0.77868226  0.21017033    -0.12800
C352        C  0.34506324  0.80416981  0.18359513     0.00700
C353        C  0.21252483  0.82528440  0.18546519     0.40000
C354        C  0.38979661  0.79529576  0.18092842     0.36600
C355        C  0.34769245  0.92298974  0.19048045     0.36400
C356        C  0.41856144  0.85985280  0.03578376     0.37100
N357        N  0.17679032  0.83293921  0.18195466    -0.43700
N358        N  0.42561056  0.78818569  0.17866935    -0.44100
N359        N  0.43339888  0.84332939  0.00650879    -0.41500
N360        N  0.33416520  0.93533286  0.22260338    -0.42900
H361        H  0.40293259  0.96267580  0.14014597     0.13200
H362        H  0.36214174  0.82259232  0.08448647     0.09700
H363        H  0.26851577  0.86850628  0.14237905     0.10800
H364        H  0.33547401  0.75228706  0.22598215     0.16600
C365        C  0.65026537  0.92601689  0.84743579    -0.01600
C366        C  0.65592565  0.88329370  0.85797999     0.07000
C367        C  0.63303119  0.86529180  0.89203160    -0.07600
C368        C  0.60306318  0.88841218  0.91415673     0.04400
C369        C  0.59535783  0.93067241  0.90199679    -0.14800
C370        C  0.61972710  0.94919888  0.86904450    -0.08100
C371        C  0.68265769  0.85548036  0.83195116     0.05400
C372        C  0.71725268  0.83522561  0.85203827    -0.09300
C373        C  0.74080133  0.80545550  0.82982066     0.00400
C374        C  0.72767651  0.79288874  0.78690690     0.00200
C375        C  0.69509251  0.81682385  0.76622797    -0.12800
C376        C  0.67209462  0.84663327  0.78833742     0.00700
C377        C  0.78004557  0.79277331  0.85109419     0.40000
C378        C  0.63614752  0.86584553  0.76615025     0.36600
C379        C  0.67551121  0.94657424  0.81471196     0.36400
C380        C  0.57915309  0.86681100  0.94727968     0.37100
N381        N  0.81165808  0.78363066  0.86853784    -0.43700
N382        N  0.60734981  0.88122106  0.74837923    -0.44100
N383        N  0.56031972  0.84891966  0.97365462    -0.41500
N384        N  0.69586900  0.96294618  0.78851756    -0.42900
H385        H  0.61487495  0.98178653  0.86010013     0.13200
H386        H  0.63744191  0.83244521  0.90021509     0.09700
H387        H  0.72638304  0.84343123  0.88517317     0.10800
H388        H  0.68575344  0.81047951  0.73286908     0.16600
C389        C  0.30682821  0.19635015  0.84664493    -0.01600
C390        C  0.33796328  0.17216338  0.82660494     0.07000
C391        C  0.34026319  0.17391755  0.78119250    -0.07600
C392        C  0.31342738  0.19965753  0.75564638     0.04400
C393        C  0.28200835  0.22530990  0.77516053    -0.14800
C394        C  0.27890488  0.22135310  0.82124246    -0.08100
C395        C  0.36715739  0.14322685  0.85175715     0.05400
C396        C  0.34982730  0.11175631  0.87839202    -0.09300
C397        C  0.37586804  0.08370891  0.90206425     0.00400
C398        C  0.42057467  0.08590236  0.89870307     0.00200
C399        C  0.43795108  0.11656743  0.87100465    -0.12800
C400        C  0.41181357  0.14531993  0.84808173     0.00700
C401        C  0.35563581  0.05296764  0.92966751     0.40000
C402        C  0.43166464  0.17803852  0.82270302     0.36600
C403        C  0.30323787  0.19677959  0.89352219     0.36400
C404        C  0.32005603  0.19831436  0.70928996     0.37100
N405        N  0.33920950  0.02862751  0.95196359    -0.43700
N406        N  0.44741225  0.20439214  0.80239421    -0.44100
N407        N  0.32738547  0.19571315  0.67262175    -0.41500
N408        N  0.30032372  0.19740188  0.93106861    -0.42900
H409        H  0.25419012  0.23684043  0.83849016     0.13200
H410        H  0.36329669  0.15452738  0.76531865     0.09700
H411        H  0.31565673  0.10912136  0.88081279     0.10800
H412        H  0.47213208  0.11944224  0.86891595     0.16600
C413        C  0.66880249  0.76861522  0.15698475    -0.01600
C414        C  0.67472823  0.81155104  0.14787637     0.07000
C415        C  0.71077591  0.83136589  0.16582826    -0.07600
C416        C  0.74041857  0.80973173  0.19241546     0.04400
C417        C  0.73254692  0.76734603  0.20559069    -0.14800
C418        C  0.69754021  0.74724073  0.18466291    -0.08100
C419        C  0.64379148  0.83660075  0.12036306     0.05400
C420        C  0.60061401  0.83641567  0.13105684    -0.09300
C421        C  0.57125684  0.86221445  0.10870403     0.00400
C422        C  0.58504940  0.88992213  0.07566227     0.00200
C423        C  0.62783898  0.88957354  0.06416228    -0.12800
C424        C  0.65697047  0.86280567  0.08551194     0.00700
C425        C  0.52773061  0.86163977  0.12233781     0.40000
C426        C  0.70016552  0.86283671  0.07085940     0.36600
C427        C  0.63367246  0.74536399  0.13815775     0.36400
C428        C  0.77994332  0.83143583  0.20085435     0.37100
N429        N  0.49293118  0.86102746  0.13352296    -0.43700
N430        N  0.73481155  0.86299018  0.05919293    -0.44100
N431        N  0.81160967  0.84920710  0.20662079    -0.41500
N432        N  0.60543765  0.72658777  0.12345247    -0.42900
H433        H  0.69169412  0.71438787  0.19106764     0.13200
H434        H  0.71633869  0.86417835  0.15837147     0.09700
H435        H  0.58995731  0.81710610  0.15805474     0.10800
H436        H  0.63858839  0.91054614  0.03853163     0.16600
C437        C  0.31698577  0.84693124  0.79068487    -0.01600
C438        C  0.34652695  0.83125659  0.82152422     0.07000
C439        C  0.35104841  0.78804277  0.82638990    -0.07600
C440        C  0.32558142  0.76015919  0.80244527     0.04400
C441        C  0.29281152  0.77521378  0.77321307    -0.14800
C442        C  0.29153927  0.81930858  0.76626534    -0.08100
C443        C  0.37457691  0.85911059  0.84790353     0.05400
C444        C  0.35780883  0.88080045  0.88308210    -0.09300
C445        C  0.38439994  0.90402636  0.91112060     0.00400
C446        C  0.42822575  0.90646856  0.90333508     0.00200
C447        C  0.44482840  0.88542174  0.86780561    -0.12800
C448        C  0.41844534  0.86169362  0.84025495     0.00700
C449        C  0.36665206  0.92264394  0.94922338     0.40000
C450        C  0.43707862  0.83947012  0.80482775     0.36600
C451        C  0.31289742  0.89138270  0.78280554     0.36400
C452        C  0.33370440  0.71630416  0.81042051     0.37100
N453        N  0.35252483  0.93699744  0.98011615    -0.43700
N454        N  0.45179419  0.82138557  0.77649536    -0.44100
N455        N  0.34164735  0.68166304  0.81814618    -0.41500
N456        N  0.30956672  0.92699211  0.77648412    -0.42900
H457        H  0.27124992  0.83329295  0.74139497     0.13200
H458        H  0.37478243  0.77596186  0.84937736     0.09700
H459        H  0.32422861  0.87820883  0.88958535     0.10800
H460        H  0.47867611  0.88668815  0.86225608     0.16600
C461        C  0.81293398  0.15372202  0.71207964    -0.01600
C462        C  0.80423725  0.15080955  0.66684077     0.07000
C463        C  0.77038182  0.17384740  0.64903947    -0.07600
C464        C  0.74898415  0.20347453  0.67333470     0.04400
C465        C  0.76056730  0.21010025  0.71829759    -0.14800
C466        C  0.78962798  0.18124501  0.73737374    -0.08100
C467        C  0.82992241  0.12483067  0.63698577     0.05400
C468        C  0.83921143  0.08301321  0.64810546    -0.09300
C469        C  0.86504153  0.05876937  0.62183981     0.00400
C470        C  0.87873598  0.07489672  0.58148746     0.00200
C471        C  0.86832703  0.11604589  0.56946325    -0.12800
C472        C  0.84540769  0.14142900  0.59723477     0.00700
C473        C  0.87882803  0.01862619  0.63849948     0.40000
C474        C  0.84066950  0.18506086  0.58524879     0.36600
C475        C  0.84742114  0.13119029  0.73313994     0.36400
C476        C  0.71489315  0.22443614  0.64986771     0.37100
N477        N  0.89011998  0.98716520  0.65362018    -0.43700
N478        N  0.83701317  0.22001141  0.57564730    -0.44100
N479        N  0.68760958  0.24028911  0.63004384    -0.41500
N480        N  0.87504900  0.11318770  0.75013547    -0.42900
H481        H  0.79722252  0.18306780  0.77197162     0.13200
H482        H  0.76121817  0.16936420  0.61507095     0.09700
H483        H  0.82726429  0.06949641  0.67804474     0.10800
H484        H  0.88037179  0.12922923  0.53934247     0.16600
C485        C  0.70840212  0.19808388  0.86117985    -0.01600
C486        C  0.67011086  0.17774238  0.85076125     0.07000
C487        C  0.65621204  0.17716343  0.80720186    -0.07600
C488        C  0.67897082  0.19737434  0.77407124     0.04400
C489        C  0.71664903  0.22088546  0.78407371    -0.14800
C490        C  0.73168480  0.21784736  0.82824419    -0.08100
C491        C  0.64606318  0.15301939  0.88366292     0.05400
C492        C  0.61835546  0.17312947  0.91171152    -0.09300
C493        C  0.59156771  0.14989152  0.93921680     0.00400
C494        C  0.59209637  0.10554851  0.93870656     0.00200
C495        C  0.62207647  0.08587270  0.91251842    -0.12800
C496        C  0.64862048  0.10908013  0.88516026     0.00700
C497        C  0.56391424  0.17239907  0.96740742     0.40000
C498        C  0.67757389  0.08712231  0.85782515     0.36600
C499        C  0.72510402  0.19818522  0.90541922     0.36400
C500        C  0.66180809  0.19205490  0.73056539     0.37100
N501        N  0.54182777  0.19041176  0.99013220    -0.43700
N502        N  0.70084721  0.06979963  0.83578528    -0.44100
N503        N  0.64540648  0.18595220  0.69710495    -0.41500
N504        N  0.73850731  0.19851548  0.94086150    -0.42900
H505        H  0.76235986  0.23012914  0.83800141     0.13200
H506        H  0.62745423  0.15993535  0.79889280     0.09700
H507        H  0.61681298  0.20700949  0.91120521     0.10800
H508        H  0.62363560  0.05202013  0.91176134     0.16600
C509        C  0.16727682  0.28709441  0.16948764    -0.01600
C510        C  0.17534915  0.33033998  0.16837543     0.07000
C511        C  0.20533854  0.34690309  0.19745146    -0.07600
C512        C  0.22792506  0.32137309  0.22724254     0.04400
C513        C  0.22369686  0.27662157  0.22593527    -0.14800
C514        C  0.19108659  0.26095129  0.19778005    -0.08100
C515        C  0.15045742  0.35965194  0.13991602     0.05400
C516        C  0.11016355  0.37173053  0.15299151    -0.09300
C517        C  0.08595350  0.40031385  0.12809367     0.00400
C518        C  0.10184259  0.41710018  0.08847466     0.00200
C519        C  0.14286949  0.40560326  0.07616651    -0.12800
C520        C  0.16718947  0.37738149  0.10159869     0.00700
C521        C  0.04523110  0.41199248  0.14468826     0.40000
C522        C  0.20904575  0.36661927  0.08750568     0.36600
C523        C  0.13511844  0.26878934  0.14134662     0.36400
C524        C  0.24979139  0.34396413  0.26133452     0.37100
N525        N  0.01266601  0.42135693  0.15811687    -0.43700
N526        N  0.24263715  0.35809429  0.07620720    -0.44100
N527        N  0.26556721  0.36328175  0.28895710    -0.41500
N528        N  0.10924035  0.25421611  0.11881755    -0.42900
H529        H  0.18500063  0.22758589  0.19684806     0.13200
H530        H  0.20945258  0.38062999  0.19839175     0.09700
H531        H  0.09772048  0.35894781  0.18309552     0.10800
H532        H  0.15580149  0.41805291  0.04617444     0.16600
C533        C  0.11311316  0.67280905  0.10832026    -0.01600
C534        C  0.14162698  0.65414161  0.13875441     0.07000
C535        C  0.14252591  0.61032594  0.14241628    -0.07600
C536        C  0.11584112  0.58512758  0.11620636     0.04400
C537        C  0.08766691  0.60377364  0.08507299    -0.14800
C538        C  0.08674209  0.64779957  0.08201875    -0.08100
C539        C  0.16915578  0.68010106  0.16820768     0.05400
C540        C  0.14992659  0.70755112  0.19664733    -0.09300
C541        C  0.17365674  0.73517244  0.22279608     0.00400
C542        C  0.21924887  0.73359222  0.22386512     0.00200
C543        C  0.23789350  0.70572847  0.19419339    -0.12800
C544        C  0.21365429  0.67971030  0.16666287     0.00700
C545        C  0.14845311  0.76612147  0.24397826     0.40000
C546        C  0.23517316  0.65432953  0.13558109     0.36600
C547        C  0.11091051  0.71770381  0.10279081     0.36400
C548        C  0.11733726  0.54052878  0.12337752     0.37100
N549        N  0.12672109  0.79045803  0.25977683    -0.43700
N550        N  0.25239238  0.63425421  0.11039869    -0.44100
N551        N  0.11890573  0.50489224  0.13012828    -0.41500
N552        N  0.10907764  0.75368015  0.09858317    -0.42900
H553        H  0.06575845  0.66306553  0.05833398     0.13200
H554        H  0.16374500  0.59577182  0.16638345     0.09700
H555        H  0.11552286  0.70859614  0.19699383     0.10800
H556        H  0.27214042  0.70437196  0.19237525     0.16600
C557        C  0.84179587  0.62114564  0.07628358    -0.01600
C558        C  0.85220728  0.62901870  0.12023138     0.07000
C559        C  0.88715745  0.60896172  0.14003091    -0.07600
C560        C  0.91236497  0.58174677  0.11640199     0.04400
C561        C  0.90233756  0.57395894  0.07192446    -0.14800
C562        C  0.86677692  0.59394789  0.05257816    -0.08100
C563        C  0.82662773  0.65747666  0.14658777     0.05400
C564        C  0.79544102  0.64037957  0.17303838    -0.09300
C565        C  0.77173808  0.66561256  0.20027038     0.00400
C566        C  0.78234532  0.70903863  0.20504148     0.00200
C567        C  0.81002099  0.72627322  0.17362571    -0.12800
C568        C  0.83247573  0.70102163  0.14525006     0.00700
C569        C  0.73426628  0.64604063  0.21772084     0.40000
C570        C  0.86243190  0.72025964  0.11613022     0.36600
C571        C  0.80579784  0.64088032  0.05480748     0.36400
C572        C  0.94825108  0.56266524  0.13879343     0.37100
N573        N  0.70406498  0.62978430  0.23065817    -0.43700
N574        N  0.88640320  0.73558529  0.09268302    -0.44100
N575        N  0.97710803  0.54763299  0.15681294    -0.41500
N576        N  0.77696227  0.65670671  0.03756497    -0.42900
H577        H  0.85882333  0.58910236  0.01841595     0.13200
H578        H  0.89494100  0.61492551  0.17404256     0.09700
H579        H  0.78866643  0.60710511  0.17126780     0.10800
H580        H  0.81618647  0.75959818  0.17303515     0.16600
C581        C  0.21516524  0.70006038  0.85671407    -0.01600
C582        C  0.18526524  0.67088865  0.84146744     0.07000
C583        C  0.17531620  0.66953447  0.79698556    -0.07600
C584        C  0.19783597  0.69369820  0.76684242     0.04400
C585        C  0.23198161  0.72035882  0.78116090    -0.14800
C586        C  0.23667377  0.72552938  0.82700928    -0.08100
C587        C  0.16239355  0.64260028  0.87136377     0.05400
C588        C  0.12033043  0.65175466  0.88051228    -0.09300
C589        C  0.09676290  0.62557967  0.90769260     0.00400
C590        C  0.11488740  0.58809421  0.92479330     0.00200
C591        C  0.15748690  0.57942907  0.91585586    -0.12800
C592        C  0.18142673  0.60660281  0.88993016     0.00700
C593        C  0.05519158  0.63986845  0.91901402     0.40000
C594        C  0.22545677  0.59703191  0.88326895     0.36600
C595        C  0.22413852  0.70450693  0.90283773     0.36400
C596        C  0.18589813  0.68767811  0.72166645     0.37100
N597        N  0.02237162  0.65270421  0.92805118    -0.43700
N598        N  0.26085002  0.58922732  0.87869313    -0.44100
N599        N  0.17430959  0.68135421  0.68627766    -0.41500
N600        N  0.23142688  0.70787297  0.93978867    -0.42900
H601        H  0.25725272  0.74910941  0.84084803     0.13200
H602        H  0.15070776  0.64817749  0.78558280     0.09700
H603        H  0.10612725  0.68004685  0.86693527     0.10800
H604        H  0.17236267  0.55146981  0.92933046     0.16600
C605        C  0.85661061  0.70417112  0.78973244    -0.01600
C606        C  0.84566501  0.68068223  0.82683475     0.07000
C607        C  0.80368987  0.68106503  0.84037419    -0.07600
C608        C  0.77281495  0.70559723  0.81876648     0.04400
C609        C  0.78370747  0.73189088  0.78256785    -0.14800
C610        C  0.82576949  0.72799098  0.76730673    -0.08100
C611        C  0.87733654  0.65569869  0.85254551     0.05400
C612        C  0.88740407  0.66750601  0.89543736    -0.09300
C613        C  0.91458340  0.64327093  0.92218793     0.00400
C614        C  0.93242864  0.60609095  0.90594326     0.00200
C615        C  0.92309770  0.59514016  0.86240145    -0.12800
C616        C  0.89569331  0.61931587  0.83590503     0.00700
C617        C  0.92183215  0.65668646  0.96655071     0.40000
C618        C  0.88517316  0.60498498  0.79250842     0.36600
C619        C  0.89970157  0.70531163  0.77475290     0.36400
C620        C  0.73133631  0.70452925  0.83746798     0.37100
N621        N  0.92752299  0.66762242  0.00205110    -0.43700
N622        N  0.87671423  0.59350319  0.75773371    -0.44100
N623        N  0.69940495  0.70232207  0.85521667    -0.41500
N624        N  0.93430071  0.70631741  0.76297368    -0.42900
H625        H  0.83538283  0.74322282  0.73743396     0.13200
H626        H  0.79510709  0.66237900  0.86868485     0.09700
H627        H  0.87318443  0.69543244  0.90835753     0.10800
H628        H  0.93615507  0.56676093  0.84928319     0.16600
C629        C  0.21017663  0.33134618  0.83253009    -0.01600
C630        C  0.16584250  0.32704120  0.83135394     0.07000
C631        C  0.14731227  0.29836866  0.80272951    -0.07600
C632        C  0.17170875  0.27410751  0.77490200     0.04400
C633        C  0.21739187  0.27673997  0.77650776    -0.14800
C634        C  0.23510312  0.30683612  0.80552615    -0.08100
C635        C  0.13790031  0.35290325  0.85882871     0.05400
C636        C  0.13285440  0.39560977  0.84907511    -0.09300
C637        C  0.10696684  0.42101459  0.87431097     0.00400
C638        C  0.08561536  0.40371936  0.91074621     0.00200
C639        C  0.08998080  0.36049512  0.91941330    -0.12800
C640        C  0.11562735  0.33525879  0.89394099     0.00700
C641        C  0.10342489  0.46460565  0.86186166     0.40000
C642        C  0.11965414  0.29146508  0.90527782     0.36600
C643        C  0.23086505  0.36035151  0.86186175     0.36400
C644        C  0.14678694  0.25116971  0.74313042     0.37100
N645        N  0.10060643  0.49949889  0.85170784    -0.43700
N646        N  0.12292238  0.25636745  0.91436967    -0.44100
N647        N  0.12519849  0.23407561  0.71796393    -0.41500
N648        N  0.24726361  0.38360064  0.88551813    -0.42900
H649        H  0.26924128  0.31102905  0.80731536     0.13200
H650        H  0.11294395  0.29605762  0.80106211     0.09700
H651        H  0.14933676  0.40916699  0.82156329     0.10800
H652        H  0.07396362  0.34622957  0.94682156     0.16600
C653        C  0.86375866  0.35510712  0.10314604    -0.01600
C654        C  0.82956273  0.37588216  0.12236033     0.07000
C655        C  0.81936439  0.41665128  0.10802674    -0.07600
C656        C  0.84425078  0.43739672  0.07704270     0.04400
C657        C  0.88143219  0.41831338  0.06257649    -0.14800
C658        C  0.89002702  0.37682885  0.07470090    -0.08100
C659        C  0.80712188  0.35619900  0.15959763     0.05400
C660        C  0.83170721  0.34044311  0.19456568    -0.09300
C661        C  0.81423011  0.31494771  0.22690405     0.00400
C662        C  0.76997456  0.30477504  0.22493393     0.00200
C663        C  0.74473832  0.32776257  0.19415345    -0.12800
C664        C  0.76282348  0.35153417  0.16066898     0.00700
C665        C  0.84353418  0.30203420  0.26128979     0.40000
C666        C  0.73537646  0.36793367  0.12630051     0.36600
C667        C  0.87268292  0.31150366  0.11215917     0.36400
C668        C  0.83112262  0.47795764  0.06097946     0.37100
N669        N  0.86793883  0.29257606  0.28838200    -0.43700
N670        N  0.71325505  0.38104143  0.09882722    -0.44100
N671        N  0.81935233  0.50990843  0.04753558    -0.41500
N672        N  0.87974674  0.27655713  0.11923769    -0.42900
H673        H  0.91766315  0.36141560  0.06204467     0.13200
H674        H  0.79275123  0.43273747  0.12181819     0.09700
H675        H  0.86553313  0.34701108  0.19568273     0.10800
H676        H  0.71061280  0.32339553  0.19338251     0.16600
C677        C  0.88490774  0.32561875  0.88815426    -0.01600
C678        C  0.87900072  0.33676138  0.84381741     0.07000
C679        C  0.90214723  0.37036896  0.82648644    -0.07600
C680        C  0.92871664  0.39471588  0.85339938     0.04400
C681        C  0.93186243  0.38582839  0.89877804    -0.14800
C682        C  0.91115441  0.35002914  0.91517620    -0.08100
C683        C  0.84592035  0.31593632  0.81647421     0.05400
C684        C  0.80342090  0.32338497  0.82533810    -0.09300
C685        C  0.77069869  0.30275259  0.80264609     0.00400
C686        C  0.77996862  0.27131304  0.77145540     0.00200
C687        C  0.82336662  0.26658038  0.76102828    -0.12800
C688        C  0.85580610  0.28881386  0.78265655     0.00700
C689        C  0.72797182  0.31328702  0.81437822     0.40000
C690        C  0.89904906  0.28355433  0.76933512     0.36600
C691        C  0.86339013  0.28981634  0.90677329     0.36400
C692        C  0.95194086  0.42879539  0.83358894     0.37100
N693        N  0.69408214  0.32201522  0.82461984    -0.43700
N694        N  0.93364356  0.27978481  0.75827624    -0.44100
N695        N  0.97067431  0.45604097  0.81774194    -0.41500
N696        N  0.84618067  0.26102471  0.92148469    -0.42900
H697        H  0.91356895  0.34223801  0.94967469     0.13200
H698        H  0.89825483  0.37849208  0.79217528     0.09700
H699        H  0.79577781  0.34546214  0.85053273     0.10800
H700        H  0.83278259  0.24665057  0.73490298     0.16600
C701        C  0.60410586  0.67003511  0.63055451    -0.01600
C702        C  0.64060374  0.65141094  0.65001715     0.07000
C703        C  0.65080542  0.61036025  0.63876171    -0.07600
C704        C  0.62728288  0.58884902  0.60687222     0.04400
C705        C  0.59080550  0.60748710  0.58720303    -0.14800
C706        C  0.57948100  0.64788104  0.60004048    -0.08100
C707        C  0.66917657  0.67469606  0.68085615     0.05400
C708        C  0.65176253  0.69436892  0.71668582    -0.09300
C709        C  0.67592395  0.72100059  0.74348407     0.00400
C710        C  0.71990921  0.72839244  0.73485207     0.00200
C711        C  0.73803405  0.70335323  0.70241465    -0.12800
C712        C  0.71323078  0.67827246  0.67467511     0.00700
C713        C  0.65323697  0.73833030  0.77931233     0.40000
C714        C  0.73349082  0.65933192  0.63810660     0.36600
C715        C  0.59185537  0.71240624  0.63985911     0.36400
C716        C  0.64366638  0.54920728  0.59316603     0.37100
N717        N  0.63370246  0.75168514  0.80741843    -0.43700
N718        N  0.74967197  0.64414428  0.60878838    -0.44100
N719        N  0.65803512  0.51794659  0.58220315    -0.41500
N720        N  0.58169861  0.74625572  0.64728558    -0.42900
H721        H  0.55168965  0.66279299  0.58547792     0.13200
H722        H  0.67825199  0.59542775  0.65401009     0.09700
H723        H  0.61842021  0.68945281  0.72329021     0.10800
H724        H  0.77157184  0.70641561  0.69598140     0.16600
C725        C  0.36745857  0.41504095  0.66070110    -0.01600
C726        C  0.33842994  0.38460932  0.64519772     0.07000
C727        C  0.33074125  0.38172798  0.60003193    -0.07600
C728        C  0.35357411  0.40625827  0.57035941     0.04400
C729        C  0.38568769  0.43377427  0.58581669    -0.14800
C730        C  0.39135453  0.43862355  0.63108919    -0.08100
C731        C  0.31668965  0.35432552  0.67482963     0.05400
C732        C  0.27245061  0.35179566  0.67331624    -0.09300
C733        C  0.25057313  0.32028208  0.69597411     0.00400
C734        C  0.27307385  0.28937460  0.72155269     0.00200
C735        C  0.31761306  0.29527976  0.72589226    -0.12800
C736        C  0.33932627  0.32575880  0.70168938     0.00700
C737        C  0.20520377  0.31950127  0.68883308     0.40000
C738        C  0.38514932  0.32553274  0.70342803     0.36600
C739        C  0.37306184  0.42282217  0.70674356     0.36400
C740        C  0.34487058  0.40061628  0.52433878     0.37100
N741        N  0.16910955  0.32045808  0.68126822    -0.43700
N742        N  0.42184947  0.32527698  0.70482016    -0.44100
N743        N  0.33751712  0.39618092  0.48752820    -0.41500
N744        N  0.37749055  0.42915397  0.74364348    -0.42900
H745        H  0.41505976  0.46045653  0.64339228     0.13200
H746        H  0.30779534  0.35908809  0.58780941     0.09700
H747        H  0.25483092  0.37388037  0.65284615     0.10800
H748        H  0.33664347  0.27596960  0.74767096     0.16600
C749        C  0.60956333  0.40623336  0.34388115    -0.01600
C750        C  0.62029343  0.36425706  0.35222544     0.07000
C751        C  0.60504614  0.34388459  0.38943725    -0.07600
C752        C  0.58123439  0.36546183  0.41982654     0.04400
C753        C  0.57222783  0.40852983  0.41290146    -0.14800
C754        C  0.58552314  0.42785289  0.37387013    -0.08100
C755        C  0.65099657  0.34235220  0.32506594     0.05400
C756        C  0.69409164  0.35057305  0.33178630    -0.09300
C757        C  0.72488366  0.32928728  0.30873366     0.00400
C758        C  0.71294154  0.29716404  0.27876303     0.00200
C759        C  0.66866172  0.29271172  0.26958194    -0.12800
C760        C  0.63815671  0.31389832  0.29306342     0.00700
C761        C  0.76819213  0.34162800  0.31783083     0.40000
C762        C  0.59376236  0.30643544  0.28327312     0.36600
C763        C  0.62404438  0.42807411  0.30541122     0.36400
C764        C  0.56845562  0.34273650  0.45840171     0.37100
N765        N  0.80199517  0.35327297  0.32697771    -0.43700
N766        N  0.55821137  0.30041809  0.27537982    -0.44100
N767        N  0.55855386  0.32427513  0.48929661    -0.41500
N768        N  0.63564971  0.44558853  0.27459567    -0.42900
H769        H  0.57861386  0.46053681  0.36732083     0.13200
H770        H  0.61334564  0.31142035  0.39564053     0.09700
H771        H  0.70374381  0.37377675  0.35561477     0.10800
H772        H  0.65677898  0.27330155  0.24346683     0.13800
C773        C  0.30372872  0.66732863  0.31467611    -0.01600
C774        C  0.33744581  0.68664033  0.33782350     0.07000
C775        C  0.34219114  0.73002576  0.33431383    -0.07600
C776        C  0.31460918  0.75422637  0.30802629     0.04400
C777        C  0.28176123  0.73494099  0.28200275    -0.14800
C778        C  0.27705087  0.69102014  0.28686221    -0.08100
C779        C  0.36921530  0.66181824  0.36401234     0.05400
C780        C  0.39103935  0.62971230  0.34345910    -0.09300
C781        C  0.41976358  0.60413300  0.36670070     0.00400
C782        C  0.42815897  0.61106695  0.41156895     0.00200
C783        C  0.40787287  0.64459547  0.43163912    -0.12800
C784        C  0.37835835  0.66958091  0.40853560     0.00700
C785        C  0.43957907  0.57081988  0.34343148     0.40000
C786        C  0.35642303  0.70148897  0.43195728     0.36600
C787        C  0.29460340  0.62329098  0.32041583     0.36400
C788        C  0.32270140  0.79877114  0.30740863     0.37100
N789        N  0.45479946  0.54406446  0.32426120    -0.43700
N790        N  0.33901410  0.72699979  0.45098692    -0.44100
N791        N  0.33028951  0.83424152  0.30718895    -0.41500
N792        N  0.28713189  0.58807578  0.32526344    -0.42900
H793        H  0.25125987  0.67461700  0.27070929     0.13200
H794        H  0.36814192  0.74516978  0.35189293     0.09700
H795        H  0.38505121  0.62416140  0.30902948     0.10800
H796        H  0.41348262  0.65012496  0.46612366     0.16600
C797        C  0.66687138  0.70599547  0.31044206    -0.01600
C798        C  0.68438114  0.67308040  0.33560611     0.07000
C799        C  0.72750470  0.66443867  0.33214299    -0.07600
C800        C  0.75287925  0.68613924  0.30241501     0.04400
C801        C  0.73486059  0.71702448  0.27339717    -0.14800
C802        C  0.69212835  0.72824246  0.28093968    -0.08100
C803        C  0.65848355  0.64652272  0.36524012     0.05400
C804        C  0.62647585  0.62077974  0.34733579    -0.09300
C805        C  0.60364176  0.59293173  0.37382443     0.00400
C806        C  0.61272809  0.59060151  0.41898661     0.00200
C807        C  0.64468307  0.61626924  0.43690190    -0.12800
C808        C  0.66739565  0.64421436  0.41053385     0.00700
C809        C  0.57301258  0.56522108  0.35365293     0.40000
C810        C  0.69921270  0.67074969  0.43070707     0.36600
C811        C  0.62314917  0.71804572  0.31488734     0.36400
C812        C  0.79641448  0.67284499  0.30123929     0.37100
N813        N  0.54897062  0.54255645  0.33730270    -0.43700
N814        N  0.72471915  0.69210711  0.44672406    -0.44100
N815        N  0.83057548  0.65981982  0.30216475    -0.41500
N816        N  0.58809880  0.72772203  0.31835685    -0.42900
H817        H  0.67776928  0.75474793  0.26425397     0.13200
H818        H  0.74127335  0.63951086  0.35213649     0.09700
H819        H  0.62011614  0.62168929  0.31242337     0.10800
H820        H  0.65154757  0.61481311  0.47172628     0.16600
C821        C  0.65238316  0.37006338  0.59762218    -0.01600
C822        C  0.65198887  0.37365914  0.64355979     0.07000
C823        C  0.63033252  0.40720416  0.66185284    -0.07600
C824        C  0.60763158  0.43563154  0.63529376     0.04400
C825        C  0.60732772  0.43125881  0.58954234    -0.14800
C826        C  0.63061983  0.39906824  0.57117601    -0.08100
C827        C  0.67444343  0.34298829  0.67266024     0.05400
C828        C  0.71757552  0.33641497  0.66668155    -0.09300
C829        C  0.73946563  0.30498305  0.68959165     0.00400
C830        C  0.71863307  0.27967647  0.72174573     0.00200
C831        C  0.67570020  0.28910396  0.72964790    -0.12800
C832        C  0.65346954  0.31932024  0.70480834     0.00700
C833        C  0.78222068  0.29758952  0.67566960     0.40000
C834        C  0.60867390  0.32429137  0.71185586     0.36600
C835        C  0.67301066  0.33580182  0.57658851     0.36400
C836        C  0.58542221  0.46929989  0.65563810     0.37100
N837        N  0.81592221  0.29213886  0.66274403    -0.43700
N838        N  0.57273810  0.32819142  0.71735254    -0.44100
N839        N  0.56781006  0.49638248  0.67197821    -0.41500
N840        N  0.68948228  0.30861289  0.55922697    -0.42900
H841        H  0.62991750  0.39517925  0.53607056     0.13200
H842        H  0.63078661  0.41088477  0.69695240     0.09700
H843        H  0.73397576  0.35498852  0.64235135     0.10800
H844        H  0.65878916  0.27326593  0.75527698     0.16600
C845        C  0.35840893  0.63997938  0.59125880    -0.01600
C846        C  0.36789151  0.64169872  0.63639471     0.07000
C847        C  0.39890236  0.61485827  0.65450319    -0.07600
C848        C  0.42083920  0.58709078  0.62830107     0.04400
C849        C  0.41148373  0.58568508  0.58307301    -0.14800
C850        C  0.38003318  0.61207250  0.56523916    -0.08100
C851        C  0.34318399  0.66801021  0.66606857     0.05400
C852        C  0.31752890  0.64788048  0.69627065    -0.09300
C853        C  0.29265678  0.67025422  0.72496494     0.00400
C854        C  0.29071673  0.71511350  0.72203496     0.00200
C855        C  0.32007952  0.73481127  0.69368554    -0.12800
C856        C  0.34572432  0.71187737  0.66592867     0.00700
C857        C  0.27386278  0.64462126  0.75841682     0.40000
C858        C  0.37432427  0.73396618  0.63752397     0.36600
C859        C  0.32643463  0.66586341  0.57035844     0.36400
C860        C  0.45159951  0.55950497  0.64887520     0.37100
N861        N  0.26038948  0.62224138  0.78470327    -0.43700
N862        N  0.39735553  0.75153763  0.61473449    -0.44100
N863        N  0.47612058  0.53730412  0.66544255    -0.41500
N864        N  0.30135051  0.68609024  0.55195798    -0.42900
H865        H  0.37285133  0.61161037  0.53047129     0.13200
H866        H  0.40569791  0.61541589  0.68933412     0.09700
H867        H  0.31755388  0.61391696  0.69787832     0.10800
H868        H  0.32154182  0.76866844  0.69173631     0.16600
C869        C  0.37917584  0.37666462  0.35457055    -0.01600
C870        C  0.37350573  0.33416254  0.36681755     0.07000
C871        C  0.39519206  0.31906009  0.40435036    -0.07600
C872        C  0.42000803  0.34581123  0.43068132     0.04400
C873        C  0.42396790  0.38877711  0.41925094    -0.14800
C874        C  0.40416704  0.40305057  0.38043993    -0.08100
C875        C  0.34523245  0.30569155  0.34065085     0.05400
C876        C  0.35054585  0.30381373  0.29562100    -0.09300
C877        C  0.32032631  0.28474329  0.26820994     0.00400
C878        C  0.28367237  0.26446247  0.28576345     0.00200
C879        C  0.28298107  0.26062161  0.33189544    -0.12800
C880        C  0.31181888  0.28233898  0.35901917     0.00700
C881        C  0.32736682  0.28992283  0.22212908     0.40000
C882        C  0.30519203  0.28123609  0.40548088     0.36600
C883        C  0.35919915  0.39508239  0.31613521     0.36400
C884        C  0.44052374  0.32811758  0.46918626     0.37100
N885        N  0.33505140  0.29576320  0.18582330    -0.43700
N886        N  0.29976477  0.28017630  0.44268948    -0.44100
N887        N  0.45682540  0.31378586  0.50006140    -0.41500
N888        N  0.34432312  0.41076501  0.28523672    -0.42900
H889        H  0.40696412  0.43565556  0.37061681     0.13200
H890        H  0.39252818  0.28624661  0.41332935     0.09700
H891        H  0.37758368  0.31956173  0.28135069     0.10800
H892        H  0.25973502  0.24119076  0.34774009     0.16600
loop_ 
_geom_bond_atom_site_label_1 
_geom_bond_atom_site_label_2 
_geom_bond_distance 
_geom_bond_site_symmetry_2 
_ccdc_geom_bond_type 
O1            C9   1.272       .  A
O1          Co21   2.020       .  S
O2           C10   1.294       .  A
O2          Co22   2.102       .  S
O3           C11   1.259       .  A
O3          Co23   1.977       .  S
O4           C12   1.269       .  A
O4          Co24   1.957       .  S
O5           C11   1.265       .  A
O5          Co22   2.011       .  S
O6           C12   1.282       .  A
O6          Co21   2.036       .  S
O7           C10   1.265       .  A
O7          Co24   1.904       .  S
O8            C9   1.265       .  A
O8          Co23   1.965       .  S
C9          C873   1.492       .  S
C10         C806   1.476       .  S
C11         C782   1.488       .  S
C12         C753   1.491       .  S
O13          C26   1.253       .  A
O13         Co21   1.971       .  S
O14          C27   1.266       .  A
O14         Co22   1.962       .  S
O15          C28   1.273       .  A
O15         Co23   2.026       .  S
O16          C29   1.292       .  A
O16         Co24   2.096       .  S
O17          C29   1.267       .  A
O17         Co22   1.898       .  S
O18          C28   1.262       .  A
O18         Co21   1.966       .  S
O19          C26   1.262       .  A
O19         Co24   2.006       .  S
O20          C27   1.280       .  A
O20         Co23   2.023       .  S
Co21         O25   2.015       .  S
Co22         O25   2.003       .  S
Co23         O25   2.019       .  S
Co24         O25   2.005       .  S
C26         C825   1.472       .  S
C27         C849   1.477       .  S
C28         C729   1.485       .  S
C29         C705   1.488       .  S
O30          C38   1.274       .  A
O30         Co50   2.022   1_556  S
O31          C39   1.293       .  A
O31         Co51   2.091   1_556  S
O32          C40   1.256       .  A
O32         Co52   1.972       .  S
O33          C41   1.269       .  A
O33         Co53   1.976       .  S
O34          C40   1.263       .  A
O34         Co51   2.012   1_656  S
O35          C41   1.280       .  A
O35         Co50   2.029   1_456  S
O36          C39   1.269       .  A
O36         Co53   1.895       .  S
O37          C38   1.262       .  A
O37         Co52   1.964       .  S
C38         C681   1.488       .  S
C39         C590   1.485       .  S
C40         C614   1.492       .  S
C41         C638   1.501       .  S
O42          C55   1.255       .  A
O42         Co50   1.967   1_455  S
O43          C56   1.267       .  A
O43         Co51   1.962   1_655  S
O44          C57   1.270   1_556  A
O44         Co52   2.019       .  S
O45          C58   1.299       .  A
O45         Co53   2.121   1_554  S
O46          C58   1.263       .  A
O46         Co51   1.888       .  S
O47          C57   1.261       .  A
O47         Co50   1.956       .  S
O48          C55   1.266       .  A
O48         Co53   2.020   1_554  S
O49          C56   1.281       .  A
O49         Co52   2.032   1_554  S
Co50         O54   2.021   1_554  S
Co51         O54   1.998   1_454  S
Co52         O54   2.034       .  S
Co53         O54   2.021   1_455  S
C55         C518   1.495       .  S
C56         C561   1.489       .  S
C57         C657   1.468       .  S
C58         C537   1.498       .  S
C59         C465   1.572       .  S
C59         C489   1.586       .  S
C59         C686   1.579       .  S
C59         C830   1.564       .  S
O60          C68   1.255       .  A
O60         Co80   1.968   1_556  S
O61          C69   1.268       .  A
O61         Co81   1.962   1_554  S
O62          C70   1.293       .  A
O62         Co82   2.102   1_565  S
O63          C71   1.272       .  A
O63         Co83   2.030   1_545  S
O64          C70   1.261       .  A
O64         Co81   1.893       .  S
O65          C71   1.259       .  A
O65         Co80   1.963       .  S
O66          C69   1.283       .  A
O66         Co83   2.038       .  S
O67          C68   1.270       .  A
O67         Co82   2.037       .  S
C68         C398   1.493       .  S
C69         C345   1.480       .  S
C70         C446   1.470       .  S
C71         C321   1.482       .  S
O72          C85   1.273       .  A
O72         Co80   2.019       .  S
O73          C86   1.291       .  A
O73         Co81   2.082       .  S
O74          C87   1.266       .  A
O74         Co82   1.967       .  S
O75          C88   1.256       .  A
O75         Co83   1.985       .  S
O76          C88   1.260       .  A
O76         Co81   2.015   1_554  S
O77          C87   1.280       .  A
O77         Co80   2.044   1_556  S
O78          C85   1.260       .  A
O78         Co83   1.954   1_545  S
O79          C86   1.271       .  A
O79         Co82   1.906   1_565  S
Co80         O84   2.024       .  S
Co81         O84   2.003   1_566  S
Co82         O84   2.015   1_556  S
Co83         O84   2.028   1_565  S
C85         C297   1.472       .  S
C86         C369   1.482       .  S
C87         C494   1.498       .  S
C88         C422   1.482       .  S
C89         C278   1.580       .  S
C89         C441   1.583       .  S
C89         C585   1.572       .  S
C89         C854   1.573       .  S
O90          C98   1.257       .  A
O90        Co110   1.963       .  S
O91          C99   1.267       .  A
O91        Co111   1.894       .  S
O92         C100   1.278       .  A
O92        Co112   2.023   1_565  S
O93         C101   1.261       .  A
O93        Co113   2.012   1_545  S
O94         C100   1.268       .  A
O94        Co111   1.968   1_655  S
O95         C101   1.252       .  A
O95        Co110   1.967   1_455  S
O96          C99   1.295       .  A
O96        Co113   2.100       .  S
O97          C98   1.274       .  A
O97        Co112   2.034       .  S
C98         C470   1.474       .  S
C99         C273   1.492       .  S
C100        C177   1.486       .  S
C101        C134   1.491       .  S
O102        C115   1.280       .  A
O102       Co110   2.038   1_455  S
O103        C116   1.265       .  A
O103       Co111   2.024   1_655  S
O104        C117   1.257       .  A
O104       Co112   1.953       .  S
O105        C118   1.263       .  A
O105       Co113   1.886       .  S
O106        C118   1.295       .  A
O106       Co111   2.098       .  S
O107        C117   1.274       .  A
O107       Co110   2.033       .  S
O108        C115   1.270       .  A
O108       Co113   1.974   1_545  S
O109        C116   1.258       .  A
O109       Co112   1.975   1_565  S
Co110       O114   2.032       .  S
Co111       O114   2.014   1_465  S
Co112       O114   2.027       .  S
Co113       O114   2.016   1_465  S
C115        C153   1.486       .  S
C116        C225   1.502       .  S
C117        C254   1.486       .  S
C118        C206   1.481       .  S
C119        C230   1.578       .  S
C119        C417   1.580       .  S
C119        C566   1.566       .  S
C119        C801   1.575       .  S
C120        C158   1.586       .  S
C120        C326   1.580       .  S
C120        C513   1.574       .  S
C120        C878   1.576       .  S
C121        C249   1.565       .  S
C121        C302   1.575       .  S
C121        C662   1.568       .  S
C121        C758   1.575       .  S
C122        C201   1.566       .  S
C122        C350   1.579       .  S
C122        C542   1.579       .  S
C122        C777   1.578       .  S
C123        C129   1.570       .  S
C123        C393   1.591       .  S
C123        C633   1.588       .  S
C123        C734   1.576       .  S
C124        C182   1.574       .  S
C124        C374   1.562       .  S
C124        C609   1.575       .  S
C124        C710   1.568       .  S
C125        C126   1.404       .  A
C125        C130   1.400       .  A
C125        C139   1.444       .  S
C126        C131   1.487       .  S
C126        C127   1.396       .  A
C127        C128   1.402       .  A
C127        H146   1.086       .  S
C128        C129   1.437       .  A
C128        C140   1.443       .  S
C129        C130   1.421       .  A
C130        H145   1.084       .  S
C131        C132   1.400       .  A
C131        C136   1.411       .  A
C132        C133   1.399       .  A
C132        H147   1.085       .  S
C133        C134   1.421       .  A
C133        C137   1.445       .  S
C134        C135   1.407       .  A
C135        C136   1.404       .  A
C135        H148   1.084       .  S
C136        C138   1.443       .  S
C137        N141   1.158       .  T
C138        N142   1.157       .  T
C139        N144   1.157       .  T
C140        N143   1.158       .  T
C149        C150   1.414       .  A
C149        C154   1.410       .  A
C149        C163   1.443       .  S
C150        C155   1.498       .  S
C150        C151   1.402       .  A
C151        C152   1.400       .  A
C151        H170   1.085       .  S
C152        C153   1.414       .  A
C152        C164   1.443       .  S
C153        C154   1.406       .  A
C154        H169   1.085       .  S
C155        C156   1.400       .  A
C155        C160   1.406       .  A
C156        C157   1.408       .  A
C156        H171   1.085       .  S
C157        C158   1.432       .  A
C157        C161   1.442       .  S
C158        C159   1.423       .  A
C159        C160   1.400       .  A
C159        H172   1.081       .  S
C160        C162   1.445       .  S
C161        N165   1.157       .  T
C162        N166   1.157       .  T
C163        N168   1.157       .  T
C164        N167   1.157       .  T
C173        C174   1.411       .  A
C173        C178   1.402       .  A
C173        C187   1.444       .  S
C174        C179   1.487       .  S
C174        C175   1.399       .  A
C175        C176   1.395       .  A
C175        H194   1.085       .  S
C176        C177   1.417       .  A
C176        C188   1.440       .  S
C177        C178   1.408       .  A
C178        H193   1.085       .  S
C179        C180   1.399       .  A
C179        C184   1.406       .  A
C180        C181   1.402       .  A
C180        H195   1.085       .  S
C181        C182   1.434       .  A
C181        C185   1.444       .  S
C182        C183   1.417       .  A
C183        C184   1.394       .  A
C183        H196   1.081       .  S
C184        C186   1.445       .  S
C185        N189   1.158       .  T
C186        N190   1.157       .  T
C187        N192   1.157       .  T
C188        N191   1.156       .  T
C197        C198   1.401       .  A
C197        C202   1.397       .  A
C197        C211   1.445       .  S
C198        C203   1.476       .  S
C198        C199   1.393       .  A
C199        C200   1.399       .  A
C199        H218   1.086       .  S
C200        C201   1.434       .  A
C200        C212   1.444       .  S
C201        C202   1.419       .  A
C202        H217   1.078       .  S
C203        C204   1.401       .  A
C203        C208   1.404       .  A
C204        C205   1.401       .  A
C204        H219   1.085       .  S
C205        C206   1.415       .  A
C205        C209   1.442       .  S
C206        C207   1.408       .  A
C207        C208   1.397       .  A
C207        H220   1.085       .  S
C208        C210   1.444       .  S
C209        N213   1.157       .  T
C210        N214   1.157       .  T
C211        N216   1.157       .  T
C212        N215   1.157       .  T
C221        C222   1.408       .  A
C221        C226   1.402       .  A
C221        C235   1.443       .  S
C222        C227   1.494       .  S
C222        C223   1.405       .  A
C223        C224   1.409       .  A
C223        H242   1.085       .  S
C224        C225   1.420       .  A
C224        C236   1.444       .  S
C225        C226   1.411       .  A
C226        H241   1.084       .  S
C227        C228   1.396       .  A
C227        C232   1.404       .  A
C228        C229   1.407       .  A
C228        H243   1.086       .  S
C229        C230   1.440       .  A
C229        C233   1.442       .  S
C230        C231   1.421       .  A
C231        C232   1.403       .  A
C231        H244   1.084       .  S
C232        C234   1.443       .  S
C233        N237   1.158       .  T
C234        N238   1.157       .  T
C235        N240   1.157       .  T
C236        N239   1.158       .  T
C245        C246   1.405       .  A
C245        C250   1.401       .  A
C245        C259   1.445       .  S
C246        C251   1.484       .  S
C246        C247   1.396       .  A
C247        C248   1.398       .  A
C247        H266   1.085       .  S
C248        C249   1.433       .  A
C248        C260   1.445       .  S
C249        C250   1.419       .  A
C250        H265   1.078       .  S
C251        C252   1.398       .  A
C251        C256   1.410       .  A
C252        C253   1.396       .  A
C252        H267   1.085       .  S
C253        C254   1.421       .  A
C253        C257   1.446       .  S
C254        C255   1.406       .  A
C255        C256   1.405       .  A
C255        H268   1.084       .  S
C256        C258   1.443       .  S
C257        N261   1.157       .  T
C258        N262   1.157       .  T
C259        N264   1.157       .  T
C260        N263   1.157       .  T
C269        C270   1.415       .  A
C269        C274   1.398       .  A
C269        C283   1.445       .  S
C270        C275   1.498       .  S
C270        C271   1.405       .  A
C271        C272   1.405       .  A
C271        H290   1.084       .  S
C272        C273   1.416       .  A
C272        C284   1.442       .  S
C273        C274   1.406       .  A
C274        H289   1.085       .  S
C275        C276   1.397       .  A
C275        C280   1.409       .  A
C276        C277   1.398       .  A
C276        H291   1.085       .  S
C277        C278   1.432       .  A
C277        C281   1.439       .  S
C278        C279   1.421       .  A
C279        C280   1.404       .  A
C279        H292   1.084       .  S
C280        C282   1.444       .  S
C281        N285   1.156       .  T
C282        N286   1.157       .  T
C283        N288   1.157       .  T
C284        N287   1.157       .  T
C293        C294   1.412       .  A
C293        C298   1.398       .  A
C293        C307   1.445       .  S
C294        C299   1.480       .  S
C294        C295   1.401       .  A
C295        C296   1.397       .  A
C295        H314   1.085       .  S
C296        C297   1.413       .  A
C296        C308   1.445       .  S
C297        C298   1.403       .  A
C298        H313   1.085       .  S
C299        C300   1.397       .  A
C299        C304   1.403       .  A
C300        C301   1.399       .  A
C300        H315   1.085       .  S
C301        C302   1.431       .  A
C301        C305   1.444       .  S
C302        C303   1.420       .  A
C303        C304   1.395       .  A
C303        H316   1.079       .  S
C304        C306   1.445       .  S
C305        N309   1.157       .  T
C306        N310   1.157       .  T
C307        N312   1.157       .  T
C308        N311   1.157       .  T
C317        C318   1.413       .  A
C317        C322   1.403       .  A
C317        C331   1.444       .  S
C318        C323   1.490       .  S
C318        C319   1.403       .  A
C319        C320   1.402       .  A
C319        H338   1.085       .  S
C320        C321   1.413       .  A
C320        C332   1.444       .  S
C321        C322   1.405       .  A
C322        H337   1.085       .  S
C323        C324   1.399       .  A
C323        C328   1.402       .  A
C324        C325   1.406       .  A
C324        H339   1.086       .  S
C325        C326   1.435       .  A
C325        C329   1.442       .  S
C326        C327   1.423       .  A
C327        C328   1.398       .  A
C327        H340   1.084       .  S
C328        C330   1.444       .  S
C329        N333   1.158       .  T
C330        N334   1.157       .  T
C331        N336   1.157       .  T
C332        N335   1.157       .  T
C341        C342   1.411       .  A
C341        C346   1.404       .  A
C341        C355   1.443       .  S
C342        C347   1.485       .  S
C342        C343   1.398       .  A
C343        C344   1.399       .  A
C343        H362   1.085       .  S
C344        C345   1.416       .  A
C344        C356   1.442       .  S
C345        C346   1.404       .  A
C346        H361   1.085       .  S
C347        C348   1.396       .  A
C347        C352   1.404       .  A
C348        C349   1.405       .  A
C348        H363   1.085       .  S
C349        C350   1.431       .  A
C349        C353   1.442       .  S
C350        C351   1.421       .  A
C351        C352   1.398       .  A
C351        H364   1.081       .  S
C352        C354   1.445       .  S
C353        N357   1.157       .  T
C354        N358   1.157       .  T
C355        N360   1.157       .  T
C356        N359   1.157       .  T
C365        C366   1.411       .  A
C365        C370   1.402       .  A
C365        C379   1.444       .  S
C366        C371   1.482       .  S
C366        C367   1.398       .  A
C367        C368   1.397       .  A
C367        H386   1.085       .  S
C368        C369   1.418       .  A
C368        C380   1.445       .  S
C369        C370   1.406       .  A
C370        H385   1.085       .  S
C371        C372   1.399       .  A
C371        C376   1.403       .  A
C372        C373   1.403       .  A
C372        H387   1.085       .  S
C373        C374   1.432       .  A
C373        C377   1.444       .  S
C374        C375   1.418       .  A
C375        C376   1.393       .  A
C375        H388   1.079       .  S
C376        C378   1.445       .  S
C377        N381   1.158       .  T
C378        N382   1.157       .  T
C379        N384   1.157       .  T
C380        N383   1.157       .  T
C389        C390   1.410       .  A
C389        C394   1.408       .  A
C389        C403   1.445       .  S
C390        C395   1.502       .  S
C390        C391   1.396       .  A
C391        C392   1.403       .  A
C391        H410   1.085       .  S
C392        C393   1.436       .  A
C392        C404   1.442       .  S
C393        C394   1.422       .  A
C394        H409   1.078       .  S
C395        C396   1.403       .  A
C395        C400   1.417       .  A
C396        C397   1.403       .  A
C396        H411   1.085       .  S
C397        C398   1.417       .  A
C397        C401   1.444       .  S
C398        C399   1.405       .  A
C399        C400   1.408       .  A
C399        H412   1.085       .  S
C400        C402   1.444       .  S
C401        N405   1.157       .  T
C402        N406   1.157       .  T
C403        N408   1.157       .  T
C404        N407   1.157       .  T
C413        C414   1.409       .  A
C413        C418   1.402       .  A
C413        C427   1.444       .  S
C414        C419   1.503       .  S
C414        C415   1.403       .  A
C415        C416   1.405       .  A
C415        H434   1.085       .  S
C416        C417   1.431       .  A
C416        C428   1.443       .  S
C417        C418   1.419       .  A
C418        H433   1.081       .  S
C419        C420   1.408       .  A
C419        C424   1.417       .  A
C420        C421   1.404       .  A
C420        H435   1.084       .  S
C421        C422   1.411       .  A
C421        C425   1.444       .  S
C422        C423   1.403       .  A
C423        C424   1.404       .  A
C423        H436   1.085       .  S
C424        C426   1.444       .  S
C425        N429   1.157       .  T
C426        N430   1.157       .  T
C427        N432   1.157       .  T
C428        N431   1.157       .  T
C437        C438   1.402       .  A
C437        C442   1.402       .  A
C437        C451   1.444       .  S
C438        C443   1.486       .  S
C438        C439   1.395       .  A
C439        C440   1.400       .  A
C439        H458   1.086       .  S
C440        C441   1.434       .  A
C440        C452   1.443       .  S
C441        C442   1.424       .  A
C442        H457   1.078       .  S
C443        C444   1.405       .  A
C443        C448   1.410       .  A
C444        C445   1.404       .  A
C444        H459   1.085       .  S
C445        C446   1.409       .  A
C445        C449   1.444       .  S
C446        C447   1.401       .  A
C447        C448   1.400       .  A
C447        H460   1.085       .  S
C448        C450   1.444       .  S
C449        N453   1.157       .  T
C450        N454   1.157       .  T
C451        N456   1.157       .  T
C452        N455   1.157       .  T
C461        C462   1.412       .  A
C461        C466   1.403       .  A
C461        C475   1.444       .  S
C462        C467   1.498       .  S
C462        C463   1.397       .  A
C463        C464   1.399       .  A
C463        H482   1.086       .  S
C464        C465   1.436       .  A
C464        C476   1.443       .  S
C465        C466   1.416       .  A
C466        H481   1.084       .  S
C467        C468   1.406       .  A
C467        C472   1.418       .  A
C468        C469   1.402       .  A
C468        H483   1.084       .  S
C469        C470   1.410       .  A
C469        C473   1.441       .  S
C470        C471   1.400       .  A
C471        C472   1.400       .  A
C471        H484   1.086       .  S
C472        C474   1.445       .  S
C473        N477   1.157   1_545  T
C474        N478   1.157       .  T
C475        N480   1.157       .  T
C476        N479   1.158       .  T
C485        C486   1.401       .  A
C485        C490   1.403       .  A
C485        C499   1.444       .  S
C486        C491   1.491       .  S
C486        C487   1.397       .  A
C487        C488   1.405       .  A
C487        H506   1.086       .  S
C488        C489   1.432       .  A
C488        C500   1.440       .  S
C489        C490   1.427       .  A
C490        H505   1.079       .  S
C491        C492   1.404       .  A
C491        C496   1.408       .  A
C492        C493   1.409       .  A
C492        H507   1.084       .  S
C493        C494   1.418       .  A
C493        C497   1.443       .  S
C494        C495   1.410       .  A
C495        C496   1.401       .  A
C495        H508   1.084       .  S
C496        C498   1.445       .  S
C497        N501   1.157       .  T
C498        N502   1.157       .  T
C499        N504   1.157       .  T
C500        N503   1.157       .  T
C509        C510   1.404       .  A
C509        C514   1.405       .  A
C509        C523   1.443       .  S
C510        C515   1.487       .  S
C510        C511   1.392       .  A
C511        C512   1.402       .  A
C511        H530   1.086       .  S
C512        C513   1.437       .  A
C512        C524   1.439       .  S
C513        C514   1.421       .  A
C514        H529   1.083       .  S
C515        C516   1.399       .  A
C515        C520   1.409       .  A
C516        C517   1.401       .  A
C516        H531   1.085       .  S
C517        C518   1.422       .  A
C517        C521   1.445       .  S
C518        C519   1.408       .  A
C519        C520   1.405       .  A
C519        H532   1.084       .  S
C520        C522   1.443       .  S
C521        N525   1.158       .  T
C522        N526   1.157       .  T
C523        N528   1.157       .  T
C524        N527   1.157       .  T
C533        C534   1.410       .  A
C533        C538   1.400       .  A
C533        C547   1.445       .  S
C534        C539   1.495       .  S
C534        C535   1.404       .  A
C535        C536   1.408       .  A
C535        H554   1.085       .  S
C536        C537   1.417       .  A
C536        C548   1.441       .  S
C537        C538   1.410       .  A
C538        H553   1.084       .  S
C539        C540   1.396       .  A
C539        C544   1.405       .  A
C540        C541   1.402       .  A
C540        H555   1.086       .  S
C541        C542   1.439       .  A
C541        C545   1.443       .  S
C542        C543   1.421       .  A
C543        C544   1.404       .  A
C543        H556   1.084       .  S
C544        C546   1.443       .  S
C545        N549   1.158       .  T
C546        N550   1.157       .  T
C547        N552   1.157       .  T
C548        N551   1.156       .  T
C557        C558   1.405       .  A
C557        C562   1.398       .  A
C557        C571   1.444       .  S
C558        C563   1.480       .  S
C558        C559   1.401       .  A
C559        C560   1.402       .  A
C559        H578   1.085       .  S
C560        C561   1.418       .  A
C560        C572   1.444       .  S
C561        C562   1.409       .  A
C562        H577   1.084       .  S
C563        C564   1.393       .  A
C563        C568   1.403       .  A
C564        C565   1.400       .  A
C564        H579   1.086       .  S
C565        C566   1.435       .  A
C565        C569   1.444       .  S
C566        C567   1.418       .  A
C567        C568   1.401       .  A
C567        H580   1.082       .  S
C568        C570   1.444       .  S
C569        N573   1.158       .  T
C570        N574   1.157       .  T
C571        N576   1.157       .  T
C572        N575   1.157       .  T
C581        C582   1.400       .  A
C581        C586   1.398       .  A
C581        C595   1.445       .  S
C582        C587   1.476       .  S
C582        C583   1.394       .  A
C583        C584   1.400       .  A
C583        H602   1.086       .  S
C584        C585   1.434       .  A
C584        C596   1.442       .  S
C585        C586   1.422       .  A
C586        H601   1.077       .  S
C587        C588   1.396       .  A
C587        C592   1.409       .  A
C588        C589   1.396       .  A
C588        H603   1.085       .  S
C589        C590   1.420       .  A
C589        C593   1.442       .  S
C590        C591   1.407       .  A
C591        C592   1.399       .  A
C591        H604   1.084       .  S
C592        C594   1.443       .  S
C593        N597   1.156       .  T
C594        N598   1.157       .  T
C595        N600   1.157       .  T
C596        N599   1.157       .  T
C605        C606   1.403       .  A
C605        C610   1.401       .  A
C605        C619   1.444       .  S
C606        C611   1.488       .  S
C606        C607   1.396       .  A
C607        C608   1.403       .  A
C607        H626   1.086       .  S
C608        C609   1.430       .  A
C608        C620   1.440       .  S
C609        C610   1.423       .  A
C610        H625   1.080       .  S
C611        C612   1.402       .  A
C611        C616   1.409       .  A
C612        C613   1.402       .  A
C612        H627   1.085       .  S
C613        C614   1.419       .  A
C613        C617   1.445       .  S
C614        C615   1.409       .  A
C615        C616   1.401       .  A
C615        H628   1.084       .  S
C616        C618   1.444       .  S
C617        N621   1.157   1_556  T
C618        N622   1.157       .  T
C619        N624   1.157       .  T
C620        N623   1.157       .  T
C629        C630   1.404       .  A
C629        C634   1.404       .  A
C629        C643   1.443       .  S
C630        C635   1.493       .  S
C630        C631   1.394       .  A
C631        C632   1.406       .  A
C631        H650   1.086       .  S
C632        C633   1.442       .  A
C632        C644   1.443       .  S
C633        C634   1.423       .  A
C634        H649   1.084       .  S
C635        C636   1.403       .  A
C635        C640   1.408       .  A
C636        C637   1.406       .  A
C636        H651   1.085       .  S
C637        C638   1.421       .  A
C637        C641   1.444       .  S
C638        C639   1.411       .  A
C639        C640   1.403       .  A
C639        H652   1.084       .  S
C640        C642   1.444       .  S
C641        N645   1.158       .  T
C642        N646   1.157       .  T
C643        N648   1.157       .  T
C644        N647   1.158       .  T
C653        C654   1.414       .  A
C653        C658   1.392       .  A
C653        C667   1.446       .  S
C654        C659   1.487       .  S
C654        C655   1.407       .  A
C655        C656   1.403       .  A
C655        H674   1.084       .  S
C656        C657   1.408       .  A
C656        C668   1.441       .  S
C657        C658   1.399       .  A
C658        H673   1.086       .  S
C659        C660   1.399       .  A
C659        C664   1.405       .  A
C660        C661   1.396       .  A
C660        H675   1.086       .  S
C661        C662   1.431       .  A
C661        C665   1.444       .  S
C662        C663   1.421       .  A
C663        C664   1.399       .  A
C663        H676   1.084       .  S
C664        C666   1.444       .  S
C665        N669   1.158       .  T
C666        N670   1.157       .  T
C667        N672   1.157       .  T
C668        N671   1.156       .  T
C677        C678   1.409       .  A
C677        C682   1.400       .  A
C677        C691   1.445       .  S
C678        C683   1.484       .  S
C678        C679   1.401       .  A
C679        C680   1.403       .  A
C679        H698   1.085       .  S
C680        C681   1.418       .  A
C680        C692   1.444       .  S
C681        C682   1.407       .  A
C682        H697   1.085       .  S
C683        C684   1.396       .  A
C683        C688   1.402       .  A
C684        C685   1.399       .  A
C684        H699   1.085       .  S
C685        C686   1.432       .  A
C685        C689   1.445       .  S
C686        C687   1.422       .  A
C687        C688   1.402       .  A
C687        H700   1.078       .  S
C688        C690   1.444       .  S
C689        N693   1.157       .  T
C690        N694   1.157       .  T
C691        N696   1.157       .  T
C692        N695   1.157       .  T
C701        C702   1.415       .  A
C701        C706   1.400       .  A
C701        C715   1.445       .  S
C702        C707   1.494       .  S
C702        C703   1.403       .  A
C703        C704   1.400       .  A
C703        H722   1.085       .  S
C704        C705   1.417       .  A
C704        C716   1.443       .  S
C705        C706   1.406       .  A
C706        H721   1.085       .  S
C707        C708   1.398       .  A
C707        C712   1.410       .  A
C708        C709   1.401       .  A
C708        H723   1.085       .  S
C709        C710   1.436       .  A
C709        C713   1.443       .  S
C710        C711   1.417       .  A
C711        C712   1.400       .  A
C711        H724   1.084       .  S
C712        C714   1.445       .  S
C713        N717   1.158       .  T
C714        N718   1.157       .  T
C715        N720   1.157       .  T
C716        N719   1.157       .  T
C725        C726   1.412       .  A
C725        C730   1.402       .  A
C725        C739   1.443       .  S
C726        C731   1.493       .  S
C726        C727   1.405       .  A
C727        C728   1.402       .  A
C727        H746   1.085       .  S
C728        C729   1.415       .  A
C728        C740   1.445       .  S
C729        C730   1.406       .  A
C730        H745   1.085       .  S
C731        C732   1.397       .  A
C731        C736   1.408       .  A
C732        C733   1.403       .  A
C732        H747   1.085       .  S
C733        C734   1.434       .  A
C733        C737   1.443       .  S
C734        C735   1.420       .  A
C735        C736   1.402       .  A
C735        H748   1.078       .  S
C736        C738   1.445       .  S
C737        N741   1.157       .  T
C738        N742   1.157       .  T
C739        N744   1.157       .  T
C740        N743   1.157       .  T
C749        C750   1.405       .  A
C749        C754   1.397       .  A
C749        C763   1.444       .  S
C750        C755   1.477       .  S
C750        C751   1.399       .  A
C751        C752   1.401       .  A
C751        H770   1.085       .  S
C752        C753   1.420       .  A
C752        C764   1.444       .  S
C753        C754   1.410       .  A
C754        H769   1.084       .  S
C755        C756   1.394       .  A
C755        C760   1.399       .  A
C756        C757   1.399       .  A
C756        H771   1.086       .  S
C757        C758   1.430       .  A
C757        C761   1.442       .  S
C758        C759   1.425       .  A
C759        C760   1.398       .  A
C759        H772   1.079       .  S
C760        C762   1.444       .  S
C761        N765   1.157       .  T
C762        N766   1.157       .  T
C763        N768   1.157       .  T
C764        N767   1.157       .  T
C773        C774   1.409       .  A
C773        C778   1.402       .  A
C773        C787   1.445       .  S
C774        C779   1.495       .  S
C774        C775   1.397       .  A
C775        C776   1.402       .  A
C775        H794   1.085       .  S
C776        C777   1.435       .  A
C776        C788   1.445       .  S
C777        C778   1.417       .  A
C778        H793   1.080       .  S
C779        C780   1.403       .  A
C779        C784   1.414       .  A
C780        C781   1.400       .  A
C780        H795   1.085       .  S
C781        C782   1.415       .  A
C781        C785   1.443       .  S
C782        C783   1.407       .  A
C783        C784   1.404       .  A
C783        H796   1.085       .  S
C784        C786   1.444       .  S
C785        N789   1.157       .  T
C786        N790   1.157       .  T
C787        N792   1.157       .  T
C788        N791   1.158       .  T
C797        C798   1.405       .  A
C797        C802   1.403       .  A
C797        C811   1.444       .  S
C798        C803   1.489       .  S
C798        C799   1.396       .  A
C799        C800   1.401       .  A
C799        H818   1.086       .  S
C800        C801   1.432       .  A
C800        C812   1.441       .  S
C801        C802   1.421       .  A
C802        H817   1.080       .  S
C803        C804   1.405       .  A
C803        C808   1.412       .  A
C804        C805   1.404       .  A
C804        H819   1.085       .  S
C805        C806   1.409       .  A
C805        C809   1.442       .  S
C806        C807   1.403       .  A
C807        C808   1.402       .  A
C807        H820   1.085       .  S
C808        C810   1.444       .  S
C809        N813   1.156       .  T
C810        N814   1.157       .  T
C811        N816   1.157       .  T
C812        N815   1.157       .  T
C821        C822   1.415       .  A
C821        C826   1.397       .  A
C821        C835   1.444       .  S
C822        C827   1.488       .  S
C822        C823   1.405       .  A
C823        C824   1.401       .  A
C823        H842   1.084       .  S
C824        C825   1.411       .  A
C824        C836   1.444       .  S
C825        C826   1.400       .  A
C826        H841   1.085       .  S
C827        C828   1.394       .  A
C827        C832   1.409       .  A
C828        C829   1.395       .  A
C828        H843   1.086       .  S
C829        C830   1.435       .  A
C829        C833   1.445       .  S
C830        C831   1.416       .  A
C831        C832   1.403       .  A
C831        H844   1.079       .  S
C832        C834   1.444       .  S
C833        N837   1.158       .  T
C834        N838   1.157       .  T
C835        N840   1.157       .  T
C836        N839   1.157       .  T
C845        C846   1.411       .  A
C845        C850   1.396       .  A
C845        C859   1.442       .  S
C846        C851   1.484       .  S
C846        C847   1.405       .  A
C847        C848   1.401       .  A
C847        H866   1.085       .  S
C848        C849   1.412       .  A
C848        C860   1.444       .  S
C849        C850   1.403       .  A
C850        H865   1.085       .  S
C851        C852   1.392       .  A
C851        C856   1.404       .  A
C852        C853   1.398       .  A
C852        H867   1.086       .  S
C853        C854   1.437       .  A
C853        C857   1.440       .  S
C854        C855   1.423       .  A
C855        C856   1.404       .  A
C855        H868   1.084       .  S
C856        C858   1.443       .  S
C857        N861   1.157       .  T
C858        N862   1.157       .  T
C859        N864   1.157       .  T
C860        N863   1.157       .  T
C869        C870   1.416       .  A
C869        C874   1.394       .  A
C869        C883   1.444       .  S
C870        C875   1.498       .  S
C870        C871   1.407       .  A
C871        C872   1.406       .  A
C871        H890   1.084       .  S
C872        C873   1.419       .  A
C872        C884   1.444       .  S
C873        C874   1.403       .  A
C874        H889   1.085       .  S
C875        C876   1.397       .  A
C875        C880   1.411       .  A
C876        C877   1.399       .  A
C876        H891   1.085       .  S
C877        C878   1.434       .  A
C877        C881   1.442       .  S
C878        C879   1.419       .  A
C879        C880   1.405       .  A
C879        H892   1.078       .  S
C880        C882   1.444       .  S
C881        N885   1.157       .  T
C882        N886   1.157       .  T
C883        N888   1.157       .  T
C884        N887   1.157       .  T
