geometry optimzed in LAMMPS
_audit_creation_date              2020-11-30 
_audit_creation_method            'lammps2cif' 
_symmetry_space_group_name_H-M    'P1' 
_symmetry_Int_Tables_number       1 
_symmetry_cell_setting            triclinic 
loop_ 
_symmetry_equiv_pos_as_xyz 
  x,y,z 
_cell_length_a                    28.68025769 
_cell_length_b                    28.591888505762068 
_cell_length_c                    29.02934602552086 
_cell_angle_alpha                 92.06042632072318 
_cell_angle_beta                  89.79881437520329 
_cell_angle_gamma                 89.60711837729842 
loop_ 
_atom_site_label 
_atom_site_type_symbol 
_atom_site_fract_x 
_atom_site_fract_y 
_atom_site_fract_z 
_atom_site_charge 
C1          C  0.39316271  0.58413961  0.40447512     0.43100
N2          N  0.44806084  0.56696285  0.45100368     0.02000
C3          C  0.58294877  0.36513830  0.44117188    -0.05900
H4          H  0.40758700  0.33710862  0.46854879     0.07400
C5          C  0.42232666  0.43067962  0.62265691    -0.06300
Co6        Co  0.49828909  0.48043098  0.41898510     0.74200
N7          N  0.44890803  0.39837317  0.45606731    -0.25400
Co8        Co  0.50194150  0.40079164  0.50543828     0.74100
C9          C  0.40096393  0.38655621  0.60685052     0.43200
N10         N  0.45382503  0.54548673  0.58866850     0.01600
N11         N  0.45339785  0.40566076  0.55843222     0.01700
N12         N  0.57999591  0.41902965  0.38586032    -0.46300
H13         H  0.40685828  0.51785978  0.35917954     0.07400
N14         N  0.44770431  0.42912492  0.42331071     0.02000
N15         N  0.55492970  0.40511507  0.55475368     0.01700
C16         C  0.61098423  0.38627670  0.59984178     0.43300
N17         N  0.45188485  0.57362153  0.55370531    -0.24900
C18         C  0.57922479  0.54211290  0.38305398    -0.05800
N19         N  0.41669808  0.59968924  0.44220199    -0.46000
N20         N  0.58692177  0.37252740  0.56183210    -0.46200
C21         C  0.60188229  0.58610499  0.39841771     0.43100
N22         N  0.54929732  0.42846137  0.41908196     0.02000
N23         N  0.55277298  0.57372696  0.55006324    -0.24900
N24         N  0.44747069  0.53191670  0.42030125    -0.25400
N25         N  0.55410394  0.54504378  0.58458278     0.01600
H26         H  0.58976585  0.63614311  0.53496553     0.07500
H27         H  0.59748525  0.45140777  0.64726902     0.07500
N28         N  0.55024350  0.39755332  0.45175320    -0.25500
N29         N  0.45441507  0.43964590  0.59042779    -0.25100
N30         N  0.54990275  0.56654860  0.44801814     0.02000
C31         C  0.39062071  0.38338215  0.40732507     0.43400
C32         C  0.42051660  0.60731495  0.56302695    -0.06300
N33         N  0.55573116  0.43948638  0.58640375    -0.25100
H34         H  0.41672924  0.45095375  0.65434311     0.07500
N35         N  0.41403146  0.42096274  0.39311169    -0.46300
H36         H  0.41316583  0.63588143  0.54077574     0.07500
C37         C  0.60421754  0.59837292  0.60250813     0.43200
C38         C  0.41360794  0.53926214  0.38991181    -0.05800
Co39       Co  0.50060613  0.57070553  0.50053017     0.73800
N40         N  0.42686939  0.56032407  0.62359693    -0.46000
C41         C  0.60260855  0.37978068  0.39765995     0.43500
N42         N  0.58106437  0.59877524  0.43884386    -0.46000
Co43       Co  0.50454791  0.49228862  0.58858469     0.73900
C44         C  0.59015368  0.43082230  0.61625435    -0.06300
C45         C  0.41426252  0.36759699  0.44863837    -0.05900
N46         N  0.54828987  0.53279832  0.41606271    -0.25400
N47         N  0.42224026  0.37330931  0.56704845    -0.46200
H48         H  0.59060209  0.33442471  0.46052473     0.07500
C49         C  0.58440546  0.60721488  0.55723170    -0.06300
Cl50       Cl  0.50143587  0.48606075  0.50346891    -0.49300
C51         C  0.40485230  0.59971224  0.61019349     0.43200
H52         H  0.58225463  0.52185982  0.35102794     0.07400
N53         N  0.58379989  0.55894741  0.61710631    -0.46000
C54         C  0.89101140  0.41743403  0.88327667     0.43100
N55         N  0.94357565  0.43381830  0.93407272     0.02000
C56         C  0.95249230  0.63550456  0.07430361    -0.05900
H57         H  0.96404737  0.66406377  0.89966574     0.07400
C58         C  0.12255958  0.57113218  0.90265108    -0.06300
Co59       Co  0.91819015  0.52063011  0.98962430     0.74200
N60         N  0.95376114  0.60268989  0.93984192    -0.25400
Co61       Co  0.00834742  0.60047191  0.98738848     0.74100
C62         C  0.10857402  0.61632328  0.88452254     0.43200
N63         N  0.08312636  0.45611972  0.93086935     0.01600
N64         N  0.05875416  0.59588236  0.93545547     0.01700
N65         N  0.89486511  0.58181243  0.07548376    -0.46300
H66         H  0.85014076  0.48515911  0.90215818     0.07400
N67         N  0.91931804  0.57241199  0.94160498     0.02000
N68         N  0.06207102  0.59683271  0.03527833     0.01700
C69         C  0.11133549  0.61392737  0.08813344     0.43300
N70         N  0.04910144  0.42535241  0.93142842    -0.24900
C71         C  0.88532233  0.45954520  0.06969439    -0.05800
N72         N  0.93088404  0.40173420  0.90252867    -0.46000
N73         N  0.07278090  0.62948430  0.06695326    -0.46200
C74         C  0.89895359  0.41446192  0.08744036     0.43100
N75         N  0.92478987  0.57245957  0.04151160     0.02000
N76         N  0.05071624  0.42580314  0.03043016    -0.24900
N77         N  0.91371518  0.46910977  0.93747503    -0.25400
N78         N  0.08492205  0.45637983  0.03197498     0.01600
H79         H  0.03776114  0.36241147  0.06480395     0.07500
H80         H  0.15455073  0.54718702  0.07220236     0.07500
N81         N  0.95862676  0.60344550  0.03991139    -0.25500
N82         N  0.08982446  0.56149789  0.93412229    -0.25100
N83         N  0.94696936  0.43261671  0.03434059     0.02000
C84         C  0.89807784  0.61920199  0.88986407     0.43400
C85         C  0.05941681  0.39011994  0.90132540    -0.06300
N86         N  0.09192253  0.56141687  0.03391316    -0.25100
H87         H  0.15413522  0.55103372  0.89617961     0.07500
N88         N  0.88512517  0.58129806  0.91268781    -0.46300
H89         H  0.04006736  0.35787750  0.89883943     0.07500
C90         C  0.10228256  0.40707887  0.08433700     0.43200
C91         C  0.88004276  0.46247789  0.90620538    -0.05800
Co92       Co  0.99750300  0.42868171  0.98228154     0.73800
N93         N  0.11661218  0.44354758  0.90137256    -0.46000
C94         C  0.91064061  0.62057771  0.09806568     0.43500
N95         N  0.93692282  0.39941758  0.06345113    -0.46000
Co96       Co  0.08826192  0.50870209  0.98266957     0.73900
C97         C  0.12436360  0.56902158  0.06638022    -0.06300
C98         C  0.94356948  0.63377872  0.90765997    -0.05900
N99         N  0.91710123  0.46792729  0.03709918    -0.25400
N100        N  0.06894224  0.62941266  0.90684536    -0.46200
H101        H  0.97369261  0.66615502  0.08076735     0.07500
C102        C  0.05879608  0.39322925  0.06134985    -0.06300
Cl103      Cl  0.00316177  0.51461059  0.98533313    -0.49300
C104        C  0.10454227  0.40217720  0.88074097     0.43200
H105        H  0.85479121  0.48077351  0.07767823     0.07400
N106        N  0.11653093  0.44635824  0.06353987    -0.46000
C107        C  0.71695320  0.21678065  0.78900110     0.87100
C108        C  0.68969272  0.24418514  0.75284894    -0.53100
C109        C  0.71604359  0.27157512  0.72553051     0.10000
C110        C  0.76865837  0.26801369  0.73564202     0.21000
C111        C  0.75256708  0.18858666  0.75892214    -0.53900
C112        C  0.77981465  0.21502437  0.73088229     0.10100
C113        C  0.74618239  0.25373385  0.81479486    -0.53400
C114        C  0.77322797  0.28066980  0.78761588     0.10700
H115        H  0.65301525  0.24042782  0.74605654     0.15200
H116        H  0.79042117  0.28980237  0.71334407     0.01000
H117        H  0.75539804  0.15070975  0.75927306     0.15500
H118        H  0.74562041  0.25802896  0.85211988     0.15300
C119        C  0.41075886  0.09934046  0.90904875     0.43100
N120        N  0.42632685  0.04871590  0.95977606     0.02000
C121        C  0.62649471  0.04945486  0.09431521    -0.05900
H122        H  0.65505646  0.02416151  0.91821761     0.07400
C123        C  0.56483913  0.87018548  0.92296302    -0.06300
Co124      Co  0.51166189  0.07577238  0.01280497     0.74200
N125        N  0.59464894  0.03832207  0.96086801    -0.25400
Co126      Co  0.59330609  0.98602157  0.00897554     0.74100
C127        C  0.60880207  0.88439232  0.90194082     0.43200
N128        N  0.45156772  0.90835062  0.95586113     0.01600
N129        N  0.58990939  0.93374830  0.95679188     0.01700
N130        N  0.57003358  0.10462725  0.09533881    -0.46300
H131        H  0.47682849  0.14141120  0.92693058     0.07400
N132        N  0.56406520  0.07291820  0.96290288     0.02000
N133        N  0.59075135  0.93335022  0.05664999     0.01700
C134        C  0.61258974  0.88145114  0.10439114     0.43300
N135        N  0.42102641  0.94321512  0.95606080    -0.24900
C136        C  0.45007235  0.11122549  0.09489129    -0.05800
N137        N  0.39502487  0.06003924  0.92844729    -0.46000
N138        N  0.62518835  0.92136535  0.08424432    -0.46200
C139        C  0.40427910  0.09996344  0.11350172     0.43100
N140        N  0.56219344  0.07168728  0.06331015     0.02000
N141        N  0.41849557  0.94323985  0.05535992    -0.24900
N142        N  0.46104036  0.07869467  0.96237012    -0.25400
N143        N  0.45009187  0.90949850  0.05635079     0.01600
H144        H  0.35129275  0.95281610  0.08660194     0.07500
H145        H  0.54438180  0.83992212  0.09207282     0.07500
N146        N  0.59467928  0.03879886  0.06158659    -0.25500
N147        N  0.55602969  0.90269556  0.95643538    -0.25100
N148        N  0.42362225  0.04856041  0.06042975     0.02000
C149        C  0.61118912  0.09121187  0.90865246     0.43400
C150        C  0.38968858  0.93460157  0.92264760    -0.06300
N151        N  0.55603587  0.90327519  0.05643242    -0.25100
H152        H  0.54444661  0.83902711  0.91622278     0.07500
N153        N  0.57297108  0.10541690  0.93280920    -0.46300
H154        H  0.35907448  0.95556130  0.91605085     0.07500
C155        C  0.39682135  0.88884940  0.10424490     0.43200
C156        C  0.45464924  0.11148065  0.93134345    -0.05800
Co157      Co  0.42155518  0.99600287  0.00781662     0.73800
N158        N  0.44229019  0.87527205  0.92403587    -0.46000
C159        C  0.60989546  0.09350928  0.11690301     0.43500
N160        N  0.38986027  0.06083739  0.09003719    -0.46000
Co161      Co  0.50329175  0.90524040  0.00655415     0.73900
C162        C  0.56590411  0.87005210  0.08644164    -0.06300
C163        C  0.62538421  0.04622657  0.92714551    -0.05900
N164        N  0.45872663  0.07815258  0.06210450    -0.25400
N165        N  0.62223402  0.92390978  0.92510649    -0.46200
H166        H  0.65875530  0.03062784  0.09941325     0.07500
C167        C  0.38360638  0.93328260  0.08405268    -0.06300
Cl168      Cl  0.50741906  0.99064978  0.00915168    -0.49300
C169        C  0.40416910  0.88984268  0.90131868     0.43200
H170        H  0.47128870  0.14179500  0.10190545     0.07400
N171        N  0.43833301  0.87633387  0.08485830    -0.46000
C172        C  0.22373254  0.79559497  0.70837818     0.87100
C173        C  0.19277477  0.76777071  0.74038962    -0.53100
C174        C  0.21620566  0.73804457  0.76769707     0.10000
C175        C  0.27024199  0.74050537  0.76256626     0.21000
C176        C  0.25668956  0.82134517  0.74295134    -0.53900
C177        C  0.28197530  0.79279870  0.77046836     0.10100
C178        C  0.25429665  0.75860082  0.68318294    -0.53400
C179        C  0.28034008  0.73063687  0.71065199     0.10700
H180        H  0.15499213  0.77076871  0.74114425     0.15200
H181        H  0.28983471  0.71807214  0.78602495     0.01000
H182        H  0.25809798  0.85882078  0.74876682     0.15500
H183        H  0.25525209  0.75533493  0.64581431     0.15300
C184        C  0.90718839  0.11590823  0.60269997     0.43100
N185        N  0.92289647  0.06310517  0.54988844     0.02000
C186        C  0.12205988  0.92377017  0.54034805    -0.05900
H187        H  0.15807673  0.09566079  0.53018823     0.07400
C188        C  0.06014225  0.09052859  0.37324212    -0.06300
Co189      Co  0.00951870  0.01033632  0.57374716     0.74200
N190        N  0.09281576  0.05937604  0.53792789    -0.25400
Co191      Co  0.08925136  0.00817741  0.48438720     0.74100
C192        C  0.10686086  0.10808537  0.38446810     0.43200
N193        N  0.94677368  0.06075168  0.41182742     0.01600
N194        N  0.08615931  0.05821572  0.43422353     0.01700
N195        N  0.06956278  0.92657948  0.59870531    -0.46300
H196        H  0.97592309  0.10103810  0.64045453     0.07400
N197        N  0.06149382  0.06018798  0.57133178     0.02000
N198        N  0.08434518  0.95682232  0.43181567     0.01700
C199        C  0.10506240  0.90457965  0.37987770     0.43300
N200        N  0.91538359  0.06108490  0.44517972    -0.24900
C201        C  0.95062156  0.92684813  0.60562758    -0.05800
N202        N  0.89075964  0.09425230  0.56372064    -0.46000
N203        N  0.11709037  0.92573120  0.42047693    -0.46200
C204        C  0.90617608  0.90586862  0.59258872     0.43100
N205        N  0.06028890  0.95834589  0.56793963     0.02000
N206        N  0.91558547  0.96035814  0.44449053    -0.24900
N207        N  0.95867054  0.06220330  0.57826686    -0.25400
N208        N  0.94561951  0.95883258  0.40984766     0.01600
H209        H  0.85355479  0.92149401  0.45914793     0.07500
H210        H  0.04065097  0.92259605  0.33556574     0.07500
N211        N  0.09078540  0.95779819  0.53386269    -0.25500
N212        N  0.05107278  0.05899080  0.40499194    -0.25100
N213        N  0.92193553  0.96079178  0.54658997     0.02000
C214        C  0.11176604  0.11119314  0.59419479     0.43400
C215        C  0.88115829  0.09114443  0.43462318    -0.06300
N216        N  0.05053695  0.95779938  0.40124858    -0.25100
H217        H  0.03821335  0.09729357  0.34402732     0.07500
N218        N  0.07163085  0.09017801  0.60545563    -0.46300
H219        H  0.84880617  0.09481316  0.45351079     0.07500
C220        C  0.89611467  0.90499300  0.39320557     0.43200
C221        C  0.95268403  0.09508628  0.61162569    -0.05800
Co222      Co  0.91801742  0.01161678  0.49666727     0.73800
N223        N  0.93593544  0.08949104  0.37878936    -0.46000
C224        C  0.10744684  0.90274430  0.58300825     0.43500
N225        N  0.89009395  0.92901271  0.55599840    -0.46000
Co226      Co  0.99828973  0.00914589  0.40627148     0.73900
C227        C  0.06044164  0.92631028  0.36704956    -0.06300
C228        C  0.12606624  0.09073050  0.54915407    -0.05900
N229        N  0.95730947  0.96047995  0.57545691    -0.25400
N230        N  0.12040712  0.08639974  0.42282569    -0.46200
H231        H  0.15272629  0.91660692  0.51940679     0.07500
C232        C  0.88344431  0.92733567  0.43732331    -0.06300
Cl233      Cl  0.00375445  0.01001395  0.49019047    -0.49300
C234        C  0.89491336  0.11033837  0.39017156     0.43200
H235        H  0.97283942  0.91971108  0.63462347     0.07400
N236        N  0.93491738  0.92631669  0.37796081    -0.46000
C237        C  0.72309066  0.70926236  0.28970997     0.87100
C238        C  0.69473570  0.74097770  0.25886461    -0.53100
C239        C  0.72042483  0.76912004  0.23156425     0.10000
C240        C  0.77370829  0.76415908  0.23922257     0.21000
C241        C  0.75819101  0.68354455  0.25715542    -0.53900
C242        C  0.78453965  0.71160621  0.23046569     0.10100
C243        C  0.75510455  0.74262507  0.31770221    -0.53400
C244        C  0.78068629  0.77192665  0.29157827     0.10700
H245        H  0.65688109  0.74020857  0.25789082     0.15200
H246        H  0.79551219  0.78739006  0.21843368     0.01000
H247        H  0.76378240  0.64613017  0.25658775     0.15500
H248        H  0.75819298  0.74288181  0.35495416     0.15300
C249        C  0.21170771  0.29008527  0.21201169     0.87100
C250        C  0.18581251  0.25807814  0.24511760    -0.53100
C251        C  0.21402060  0.22954475  0.26970584     0.10000
C252        C  0.26636062  0.23766452  0.26175336     0.21000
C253        C  0.24368711  0.31762441  0.24565300    -0.53900
C254        C  0.27224384  0.29060286  0.27147151     0.10100
C255        C  0.24406792  0.25667835  0.18397213    -0.53400
C256        C  0.27352134  0.22966954  0.20922347     0.10700
H257        H  0.14871865  0.25892124  0.25175458     0.15200
H258        H  0.28944078  0.21639465  0.28336044     0.01000
H259        H  0.24225598  0.35543252  0.25051239     0.15500
H260        H  0.24281868  0.25427312  0.14660003     0.15300
C261        C  0.78966904  0.28963464  0.20345607     0.87100
C262        C  0.75601763  0.31685228  0.23594877    -0.53100
C263        C  0.73270385  0.29049098  0.26691697     0.10000
C264        C  0.74425763  0.23773994  0.26124976     0.21000
C265        C  0.82103011  0.26066730  0.23495059    -0.53900
C266        C  0.79756308  0.23415993  0.26546242     0.10100
C267        C  0.75932769  0.25114867  0.18025054    -0.53400
C268        C  0.73438101  0.22507544  0.21018838     0.10700
H269        H  0.75080974  0.35435507  0.23384535     0.15200
H270        H  0.72604272  0.21529744  0.28577707     0.01000
H271        H  0.85879450  0.25980358  0.23236596     0.15500
H272        H  0.75822455  0.24301155  0.14360961     0.15300
C273        C  0.28921225  0.70832556  0.28365435     0.87100
C274        C  0.25844621  0.68156695  0.24898544    -0.53100
C275        C  0.23131634  0.70884299  0.22194999     0.10000
C276        C  0.23885116  0.76190981  0.23123234     0.21000
C277        C  0.31795767  0.74174752  0.25426289    -0.53900
C278        C  0.29198832  0.76875354  0.22585896     0.10100
C279        C  0.25642703  0.74261117  0.31010420    -0.53400
C280        C  0.22970730  0.77021565  0.28331577     0.10700
H281        H  0.25848038  0.64358990  0.24607145     0.15200
H282        H  0.21748647  0.78482324  0.20948150     0.01000
H283        H  0.35549862  0.74532335  0.25619032     0.15500
H284        H  0.25596952  0.74684280  0.34737634     0.15300
C285        C  0.29416554  0.21101169  0.78659373     0.87100
C286        C  0.26121387  0.18267678  0.75455679    -0.53100
C287        C  0.23415040  0.20858110  0.72620539     0.10000
C288        C  0.24191020  0.26177585  0.73325955     0.21000
C289        C  0.32151394  0.24224883  0.75478261    -0.53900
C290        C  0.29485164  0.26836466  0.72633816     0.10100
C291        C  0.26007427  0.24455194  0.81284383    -0.53400
C292        C  0.23363299  0.27186443  0.78520045     0.10700
H293        H  0.25783330  0.14510261  0.75517871     0.15200
H294        H  0.21960119  0.28337270  0.71115531     0.01000
H295        H  0.35938694  0.24315558  0.75445622     0.15500
H296        H  0.25659106  0.24649259  0.85010331     0.15300
C297        C  0.78729196  0.78725211  0.70589442     0.87100
C298        C  0.75537245  0.75405783  0.67777524    -0.53100
C299        C  0.72856806  0.72538319  0.70332807     0.10000
C300        C  0.73529748  0.73285226  0.75573530     0.21000
C301        C  0.75196139  0.81365922  0.73779117    -0.53900
C302        C  0.72581536  0.78561277  0.76479425     0.10100
C303        C  0.81470302  0.75577991  0.73773733    -0.53400
C304        C  0.78832284  0.72659132  0.76340349     0.10700
H305        H  0.75197088  0.75467520  0.64062461     0.15200
H306        H  0.71281686  0.70995836  0.77619552     0.01000
H307        H  0.74710709  0.85131504  0.73901493     0.15500
H308        H  0.85250457  0.75670048  0.73972275     0.15300
C309        C  0.20019796  0.18601264  0.69283899    -0.04700
C310        C  0.19698884  0.20020705  0.64662484    -0.01800
C311        C  0.16616099  0.17740598  0.61537184     0.03100
C312        C  0.14132932  0.13754957  0.62832501    -0.04700
C313        C  0.14448008  0.12314377  0.67436738    -0.01800
C314        C  0.17175568  0.14853323  0.70680258     0.03100
C315        C  0.22598433  0.23729207  0.62989889     0.37800
C316        C  0.12084355  0.08124147  0.68860355     0.37800
C317        C  0.16835855  0.13714831  0.75508888     0.36200
C318        C  0.15782102  0.19696899  0.57074370     0.36200
N319        N  0.16537229  0.12816023  0.79354465    -0.38600
N320        N  0.15041011  0.21377775  0.53583836    -0.38600
N321        N  0.10226563  0.04773940  0.70002520    -0.38100
N322        N  0.24832596  0.26673903  0.61498612    -0.38100
C323        C  0.13907423  0.13481193  0.35457128    -0.04700
C324        C  0.13579793  0.13103904  0.30584026    -0.01800
C325        C  0.16309400  0.15981779  0.27825931     0.03100
C326        C  0.19368616  0.19284829  0.29875184    -0.04700
C327        C  0.20221273  0.19171901  0.34645779    -0.01800
C328        C  0.17504342  0.16278478  0.37431178     0.03100
C329        C  0.10704062  0.09556010  0.28330937     0.37800
C330        C  0.23947582  0.21917088  0.36708424     0.37800
C331        C  0.18532179  0.16125808  0.42306182     0.36200
C332        C  0.16192766  0.15350657  0.22839867     0.36200
N333        N  0.19484442  0.15936648  0.46163015    -0.38600
N334        N  0.16161886  0.14797456  0.18871384    -0.38600
N335        N  0.26973413  0.23958180  0.38451674    -0.38100
N336        N  0.08449984  0.06723188  0.26482888    -0.38100
C337        C  0.87723460  0.87542020  0.62150374    -0.04700
C338        C  0.86558698  0.88981833  0.66704254    -0.01800
C339        C  0.83820443  0.86109624  0.69487554     0.03100
C340        C  0.82058036  0.81758946  0.67702900    -0.04700
C341        C  0.83905898  0.80067168  0.63368254    -0.01800
C342        C  0.86406833  0.83065674  0.60498594     0.03100
C343        C  0.88144479  0.93480709  0.68544915     0.37800
C344        C  0.83737004  0.75139520  0.62001121     0.37800
C345        C  0.87759412  0.81474818  0.55875038     0.36200
C346        C  0.83163078  0.87598460  0.74272870     0.36200
N347        N  0.88797417  0.80208524  0.52178393    -0.38600
N348        N  0.82696392  0.88945546  0.78053438    -0.38600
N349        N  0.83645379  0.71217620  0.60870048    -0.38100
N350        N  0.89427624  0.97049454  0.70032333    -0.38100
C351        C  0.13702774  0.87200154  0.35220611    -0.04700
C352        C  0.11989681  0.84064234  0.31715089    -0.01800
C353        C  0.15021025  0.80829844  0.29382373     0.03100
C354        C  0.19812293  0.80708769  0.30445965    -0.04700
C355        C  0.21581787  0.83962140  0.33766467    -0.01800
C356        C  0.18581200  0.87166927  0.36128072     0.03100
C357        C  0.07109839  0.84042520  0.30455638     0.37800
C358        C  0.26567119  0.84133216  0.34660685     0.37800
C359        C  0.20644106  0.90498188  0.39407618     0.36200
C360        C  0.13129547  0.77494491  0.26010184     0.36200
N361        N  0.22339306  0.93123972  0.42016074    -0.38600
N362        N  0.11525653  0.74878587  0.23336855    -0.38600
N363        N  0.30534980  0.84258271  0.35363562    -0.38100
N364        N  0.03264708  0.83955521  0.29264046    -0.38100
C365        C  0.81121319  0.80830523  0.31328804    -0.04700
C366        C  0.85980386  0.80098411  0.31665244    -0.01800
C367        C  0.88709863  0.83159437  0.34438129     0.03100
C368        C  0.86700193  0.87230943  0.36501385    -0.04700
C369        C  0.81888107  0.88134280  0.35908078    -0.01800
C370        C  0.79086365  0.84860016  0.33477840     0.03100
C371        C  0.88230116  0.76222152  0.29189583     0.37800
C372        C  0.79807033  0.92463724  0.37720882     0.37800
C373        C  0.74109822  0.85706542  0.33098543     0.36200
C374        C  0.93470368  0.81883302  0.35537275     0.36200
N375        N  0.70154981  0.86440214  0.32761661    -0.38600
N376        N  0.97209252  0.80796303  0.36557941    -0.38600
N377        N  0.78147815  0.95920142  0.39158281    -0.38100
N378        N  0.90237381  0.73261701  0.27202854    -0.38100
C379        C  0.82168163  0.20199145  0.29729116    -0.04700
C380        C  0.85256557  0.16706826  0.27962227    -0.01800
C381        C  0.87577681  0.13688782  0.30963039     0.03100
C382        C  0.86770978  0.14047712  0.35809619    -0.04700
C383        C  0.83428988  0.17368897  0.37504471    -0.01800
C384        C  0.81276568  0.20512755  0.34509966     0.03100
C385        C  0.85893693  0.16067903  0.23009823     0.37800
C386        C  0.82036657  0.17565127  0.42303066     0.37800
C387        C  0.78270611  0.24192166  0.36435935     0.36200
C388        C  0.90607844  0.10066574  0.28953384     0.36200
N389        N  0.75931402  0.27094185  0.38118252    -0.38600
N390        N  0.93006326  0.07189458  0.27306255    -0.38600
N391        N  0.80695212  0.17747973  0.46067428    -0.38100
N392        N  0.86376909  0.15557692  0.19063211    -0.38100
C393        C  0.19554071  0.82426455  0.67330350    -0.04700
C394        C  0.20656122  0.87122794  0.66220553    -0.01800
C395        C  0.17629569  0.89722444  0.63455802     0.03100
C396        C  0.13779672  0.87564004  0.61316473    -0.04700
C397        C  0.12951957  0.82797167  0.61893915    -0.01800
C398        C  0.15842873  0.80211944  0.64806519     0.03100
C399        C  0.25116869  0.89215169  0.67299729     0.37800
C400        C  0.09138811  0.80539528  0.59418617     0.37800
C401        C  0.15064471  0.75208167  0.64994034     0.36200
C402        C  0.18491566  0.94663252  0.62787114     0.36200
N403        N  0.14415253  0.71223614  0.65113550    -0.38600
N404        N  0.19150558  0.98598290  0.62260479    -0.38600
N405        N  0.06102938  0.78758197  0.57429135    -0.38100
N406        N  0.28627958  0.91063424  0.68029629    -0.38100
C407        C  0.63710322  0.12771163  0.14644893    -0.04700
C408        C  0.66831091  0.11196314  0.18035107    -0.01800
C409        C  0.69917579  0.14362096  0.20303990     0.03100
C410        C  0.69796524  0.19155835  0.19304508    -0.04700
C411        C  0.66174254  0.20824022  0.16511344    -0.01800
C412        C  0.63229480  0.17672546  0.14095635     0.03100
C413        C  0.66625810  0.06397478  0.19454166     0.37800
C414        C  0.65292025  0.25825645  0.16357581     0.37800
C415        C  0.59765993  0.19565466  0.11025264     0.36200
C416        C  0.73114930  0.12679411  0.23731786     0.36200
N417        N  0.57001036  0.21116448  0.08605929    -0.38600
N418        N  0.75573407  0.11270530  0.26521235    -0.38600
N419        N  0.64523194  0.29803043  0.16322658    -0.38100
N420        N  0.66385782  0.02611469  0.20707586    -0.38100
C421        C  0.30903636  0.19647991  0.18673165    -0.04700
C422        C  0.33492855  0.21056375  0.14783325    -0.01800
C423        C  0.36480321  0.17882797  0.12362612     0.03100
C424        C  0.37232491  0.13327305  0.13933623    -0.04700
C425        C  0.34988958  0.12014799  0.18010050    -0.01800
C426        C  0.31753817  0.15082695  0.20306168     0.03100
C427        C  0.33302893  0.25846394  0.13305920     0.37800
C428        C  0.36244686  0.07603596  0.20001335     0.37800
C429        C  0.29322838  0.13426482  0.24306494     0.36200
C430        C  0.38762939  0.19356988  0.08204882     0.36200
N431        N  0.27495586  0.11997134  0.27521252    -0.38600
N432        N  0.40602206  0.20589107  0.04919570    -0.38600
N433        N  0.37350868  0.04143410  0.21647718    -0.38100
N434        N  0.33234937  0.29622027  0.12005873    -0.38100
C435        C  0.36765582  0.85812003  0.13384042    -0.04700
C436        C  0.33390032  0.87758721  0.16512943    -0.01800
C437        C  0.30803151  0.84856802  0.19415538     0.03100
C438        C  0.31473097  0.79968546  0.19195429    -0.04700
C439        C  0.34505063  0.77984901  0.15805209    -0.01800
C440        C  0.37241866  0.80862093  0.13027007     0.03100
C441        C  0.32542720  0.92760017  0.16862029     0.37800
C442        C  0.34469671  0.72965086  0.14864534     0.37800
C443        C  0.40441922  0.78642478  0.09722618     0.36200
C444        C  0.27433334  0.86968183  0.22599926     0.36200
N445        N  0.43004590  0.76833635  0.07122811    -0.38600
N446        N  0.24743516  0.88832711  0.25022385    -0.38600
N447        N  0.34322894  0.68989959  0.13981483    -0.38100
N448        N  0.31711146  0.96724646  0.17159630    -0.38100
C449        C  0.63841571  0.85700727  0.86774440    -0.04700
C450        C  0.61790981  0.83205201  0.83000910    -0.01800
C451        C  0.64600708  0.80580612  0.79812530     0.03100
C452        C  0.69501705  0.80613559  0.80212283    -0.04700
C453        C  0.71544312  0.82958268  0.84057072    -0.01800
C454        C  0.68747814  0.85470881  0.87321404     0.03100
C455        C  0.56802981  0.83506548  0.82232145     0.37800
C456        C  0.76534573  0.82569768  0.84789529     0.37800
C457        C  0.70958507  0.87702594  0.91307384     0.36200
C458        C  0.62394427  0.77809857  0.76174370     0.36200
N459        N  0.72741538  0.89475076  0.94479644    -0.38600
N460        N  0.60462990  0.75567216  0.73400053    -0.38600
N461        N  0.80498227  0.82185233  0.85422309    -0.38100
N462        N  0.52830240  0.83748746  0.81584032    -0.38100
C463        C  0.32752106  0.18223444  0.81695210    -0.04700
C464        C  0.34187021  0.13558934  0.80422610    -0.01800
C465        C  0.36585552  0.10785250  0.83585327     0.03100
C466        C  0.38355870  0.12826494  0.87691180    -0.04700
C467        C  0.37757409  0.17687066  0.88548842    -0.01800
C468        C  0.34954154  0.20352929  0.85618613     0.03100
C469        C  0.33907937  0.11778346  0.75691462     0.33400
C470        C  0.40063995  0.20038343  0.92410826     0.37800
C471        C  0.34637602  0.25353799  0.86589381     0.36200
C472        C  0.37477803  0.05867317  0.82468078     0.36200
N473        N  0.34502181  0.29312723  0.87546309    -0.38600
N474        N  0.38165949  0.01941914  0.81592242    -0.38600
N475        N  0.41965035  0.22045770  0.95371085    -0.38100
N476        N  0.33747243  0.10321551  0.71923475    -0.38100
C477        C  0.64458675  0.85195103  0.13275836    -0.04700
C478        C  0.68175839  0.87224993  0.15858008    -0.01800
C479        C  0.70763293  0.84539174  0.18985895     0.03100
C480        C  0.69735340  0.79757507  0.19522055    -0.04700
C481        C  0.66477947  0.77605377  0.16469352    -0.01800
C482        C  0.63938427  0.80275246  0.13323570     0.03100
C483        C  0.69579310  0.92001819  0.15123864     0.37800
C484        C  0.65908660  0.72561469  0.16338460     0.37800
C485        C  0.61180963  0.77832735  0.09826979     0.36200
C486        C  0.74528767  0.86742922  0.21551035     0.36200
N487        N  0.59065977  0.75823776  0.07011984    -0.38600
N488        N  0.77572495  0.88607865  0.23450618    -0.38600
N489        N  0.65407633  0.68548583  0.16180101    -0.38100
N490        N  0.70850383  0.95747617  0.14447810    -0.38100
C491        C  0.31771561  0.81218804  0.80397068    -0.04700
C492        C  0.31570087  0.80288889  0.85158147    -0.01800
C493        C  0.34454039  0.82771592  0.88341116     0.03100
C494        C  0.37692290  0.86059506  0.86791903    -0.04700
C495        C  0.38244689  0.86645484  0.82038874    -0.01800
C496        C  0.35305659  0.84259811  0.78858459     0.03100
C497        C  0.28479851  0.76757554  0.86852682     0.37800
C498        C  0.41893514  0.89684374  0.80421195     0.37800
C499        C  0.36110923  0.84840274  0.73992536     0.36200
C500        C  0.34056390  0.81987365  0.93237777     0.36200
N501        N  0.36959746  0.85420590  0.70161343    -0.38600
N502        N  0.33745880  0.81366031  0.97144268    -0.38600
N503        N  0.44830848  0.92074573  0.79138133    -0.38100
N504        N  0.26179315  0.73870711  0.88354234    -0.38100
C505        C  0.81571195  0.19340127  0.69839131    -0.04700
C506        C  0.84844067  0.16068370  0.71466089    -0.01800
C507        C  0.87743607  0.13460681  0.68376617     0.03100
C508        C  0.87764759  0.14402419  0.63621746    -0.04700
C509        C  0.84927299  0.18067075  0.62074713    -0.01800
C510        C  0.81739551  0.20418745  0.65106688     0.03100
C511        C  0.85595045  0.15630702  0.76358260     0.37800
C512        C  0.85530662  0.19642838  0.57422578     0.37800
C513        C  0.78687393  0.23928705  0.63251659     0.36200
C514        C  0.90647628  0.09778561  0.70179885     0.36200
N515        N  0.76386559  0.26731410  0.61573869    -0.38600
N516        N  0.92970002  0.06892332  0.71698132    -0.38600
N517        N  0.86133684  0.20994683  0.53763125    -0.38100
N518        N  0.86514404  0.15223180  0.80195461    -0.38100
C519        C  0.68838719  0.18663684  0.82282642    -0.04700
C520        C  0.71203462  0.15659005  0.85325821    -0.01800
C521        C  0.68719511  0.12545478  0.88099837     0.03100
C522        C  0.63809697  0.12256281  0.87820432    -0.04700
C523        C  0.61422998  0.15458918  0.85069536    -0.01800
C524        C  0.63887443  0.18925780  0.82739818     0.03100
C525        C  0.76151872  0.16177300  0.86145149     0.37800
C526        C  0.56380008  0.15270488  0.84649246     0.37800
C527        C  0.61330060  0.23169160  0.81783222     0.36200
C528        C  0.71245425  0.09931349  0.91503123     0.36200
N529        N  0.59237706  0.26553926  0.81114177    -0.38600
N530        N  0.73289745  0.07904970  0.94235229    -0.38600
N531        N  0.52369115  0.15127721  0.84249244    -0.38100
N532        N  0.80030678  0.16642071  0.87113512    -0.38100
C533        C  0.12969018  0.37986015  0.11897802    -0.04700
C534        C  0.10783415  0.34498090  0.14471068    -0.01800
C535        C  0.13454515  0.31261624  0.16924746     0.03100
C536        C  0.18231754  0.32135272  0.17957805    -0.04700
C537        C  0.20390469  0.35848139  0.15576247    -0.01800
C538        C  0.17837048  0.38591248  0.12458895     0.03100
C539        C  0.05740323  0.34268558  0.14825821     0.37800
C540        C  0.25300866  0.36879259  0.16202158     0.37800
C541        C  0.20313749  0.41997228  0.09799281     0.36200
C542        C  0.11312952  0.26774431  0.17663242     0.36200
N543        N  0.22332636  0.44686416  0.07686829    -0.38600
N544        N  0.09482979  0.23226135  0.18131104    -0.38600
N545        N  0.29175414  0.37851960  0.16750078    -0.38100
N546        N  0.01727963  0.34063974  0.15207848    -0.38100
C547        C  0.19732206  0.68764715  0.18796868    -0.04700
C548        C  0.19499172  0.70259948  0.14193092    -0.01800
C549        C  0.16554381  0.67946410  0.10963084     0.03100
C550        C  0.13860173  0.64111294  0.12273818    -0.04700
C551        C  0.13901919  0.62740472  0.16868099    -0.01800
C552        C  0.16776225  0.65066658  0.20128041     0.03100
C553        C  0.22349851  0.74066628  0.12651395     0.37800
C554        C  0.10903116  0.58962632  0.18253955     0.37800
C555        C  0.16556510  0.63675480  0.24877636     0.36200
C556        C  0.16395210  0.69429225  0.06236249     0.36200
N557        N  0.16346668  0.62473904  0.28634454    -0.38600
N558        N  0.16276610  0.70624247  0.02472360    -0.38600
N559        N  0.08490229  0.55966978  0.19346968    -0.38100
N560        N  0.24507977  0.77120001  0.11262504    -0.38100
C561        C  0.82093260  0.69184571  0.19758514    -0.04700
C562        C  0.85179970  0.65560243  0.21118127    -0.01800
C563        C  0.88241096  0.63365106  0.17885550     0.03100
C564        C  0.88302336  0.64762163  0.13297238    -0.04700
C565        C  0.85484413  0.68530755  0.11977723    -0.01800
C566        C  0.82349856  0.70700606  0.15163339     0.03100
C567        C  0.85313724  0.64092706  0.25854549     0.37800
C568        C  0.85726584  0.70103086  0.07281970     0.37800
C569        C  0.79246859  0.74300112  0.13541966     0.36200
C570        C  0.91382891  0.59675041  0.19279788     0.36200
N571        N  0.76871034  0.77164219  0.12065824    -0.38600
N572        N  0.93914016  0.56752050  0.20377691    -0.38600
N573        N  0.85933661  0.71386474  0.03551696    -0.38100
N574        N  0.85434541  0.62899494  0.29620994    -0.38100
C575        C  0.18980377  0.70661687  0.79827508    -0.04700
C576        C  0.18240028  0.65936621  0.78472491    -0.01800
C577        C  0.15784369  0.62943512  0.81384615     0.03100
C578        C  0.13646297  0.64752268  0.85478485    -0.04700
C579        C  0.14037502  0.69603726  0.86612645    -0.01800
C580        C  0.16639210  0.72540325  0.83768681     0.03100
C581        C  0.19553247  0.64278312  0.73865631     0.37800
C582        C  0.11865558  0.71605108  0.90759017     0.37800
C583        C  0.16770523  0.77546391  0.84807529     0.36200
C584        C  0.15317572  0.58032708  0.80051399     0.36200
N585        N  0.16858997  0.81540513  0.85603513    -0.38600
N586        N  0.14984960  0.54106911  0.78998101    -0.38600
N587        N  0.10132729  0.73237477  0.94051036    -0.38100
N588        N  0.20523904  0.62959394  0.70167258    -0.38100
C589        C  0.81112585  0.69250569  0.79473432    -0.04700
C590        C  0.79663643  0.68814905  0.84112098    -0.01800
C591        C  0.82487952  0.66361043  0.87212633     0.03100
C592        C  0.86769242  0.64355550  0.85717598    -0.04700
C593        C  0.88014961  0.64433423  0.81036037    -0.01800
C594        C  0.85103345  0.66690399  0.77897879     0.03100
C595        C  0.75278496  0.70798304  0.85755053     0.37800
C596        C  0.92274578  0.62125777  0.79434394     0.37800
C597        C  0.86068067  0.66109735  0.73001910     0.36200
C598        C  0.81056638  0.66023877  0.91991109     0.36200
N599        N  0.86826246  0.65554266  0.69103290    -0.38600
N600        N  0.79908560  0.65744690  0.95796814    -0.38600
N601        N  0.95685019  0.60300452  0.78176111    -0.38100
N602        N  0.71746797  0.72235824  0.87156299    -0.38100
C603        C  0.13749891  0.37095072  0.85260636    -0.04700
C604        C  0.18654965  0.37872961  0.85350367    -0.01800
C605        C  0.21750184  0.34760156  0.82964012     0.03100
C606        C  0.20050450  0.30805397  0.80477256    -0.04700
C607        C  0.15204239  0.30200583  0.80080117    -0.01800
C608        C  0.12076600  0.33254277  0.82499886     0.03100
C609        C  0.20635526  0.41784057  0.87984506     0.37800
C610        C  0.13371395  0.26432065  0.77160606     0.37800
C611        C  0.07142443  0.32290038  0.82118161     0.36200
C612        C  0.26686692  0.35831154  0.82800801     0.36200
N613        N  0.03253957  0.31292366  0.81779412    -0.38600
N614        N  0.30577723  0.36842467  0.82564810    -0.38600
N615        N  0.11735216  0.23534831  0.74814947    -0.38100
N616        N  0.22262908  0.44884364  0.90073579    -0.38100
C617        C  0.81676244  0.32374183  0.17238244    -0.04700
C618        C  0.80293779  0.33328255  0.12632131    -0.01800
C619        C  0.83100425  0.36122111  0.09822620     0.03100
C620        C  0.87020519  0.38434363  0.11662993    -0.04700
C621        C  0.88041917  0.38094914  0.16356892    -0.01800
C622        C  0.85415532  0.35117894  0.19137679     0.03100
C623        C  0.75774604  0.31988446  0.10829014     0.37800
C624        C  0.91724594  0.40966738  0.18362423     0.37800
C625        C  0.86570875  0.35055561  0.23995829     0.36200
C626        C  0.81889070  0.36706718  0.05020644     0.36200
N627        N  0.87623826  0.34991324  0.27837972    -0.38600
N628        N  0.80924620  0.37161331  0.01194973    -0.38600
N629        N  0.94624365  0.43303095  0.19953022    -0.38100
N630        N  0.72197222  0.31018280  0.09242641    -0.38100
C631        C  0.85921263  0.38703443  0.85489237    -0.04700
C632        C  0.81114748  0.38377686  0.86563180    -0.01800
C633        C  0.78278063  0.35136984  0.84124194     0.03100
C634        C  0.80246465  0.31950681  0.80792547    -0.04700
C635        C  0.85000051  0.32427513  0.79577464    -0.01800
C636        C  0.87759505  0.35898335  0.81808026     0.03100
C637        C  0.79038754  0.41236501  0.90267808     0.37800
C638        C  0.87157277  0.29281614  0.76161390     0.37800
C639        C  0.92434515  0.36772847  0.80147535     0.36200
C640        C  0.73286963  0.35154390  0.85012340     0.36200
N641        N  0.96109806  0.37595617  0.78751915    -0.38600
N642        N  0.69313990  0.35155187  0.85726134    -0.38600
N643        N  0.88981892  0.26832628  0.73443704    -0.38100
N644        N  0.77312398  0.43499775  0.93197042    -0.38100
C645        C  0.63255591  0.63139161  0.63216582    -0.04700
C646        C  0.62970046  0.68045018  0.62659155    -0.01800
C647        C  0.66072590  0.71085524  0.65006708     0.03100
C648        C  0.69365995  0.69319096  0.68126638    -0.04700
C649        C  0.69355928  0.64498181  0.69030281    -0.01800
C650        C  0.66262357  0.61441140  0.66650816     0.03100
C651        C  0.59254354  0.70085886  0.59988984     0.37800
C652        C  0.72639043  0.62602028  0.72274158     0.37800
C653        C  0.66089807  0.56582558  0.67896243     0.36200
C654        C  0.65741523  0.76089089  0.64311623     0.36200
N655        N  0.65875458  0.52754933  0.69037039    -0.38600
N656        N  0.65466351  0.80072378  0.63771381    -0.38600
N657        N  0.75213886  0.60989535  0.74845149    -0.38100
N658        N  0.56290658  0.71777609  0.57908439    -0.38100
C659        C  0.37046666  0.35553623  0.63364830    -0.04700
C660        C  0.33231946  0.37444953  0.65909846    -0.01800
C661        C  0.30546537  0.34572107  0.68736765     0.03100
C662        C  0.31699230  0.29782230  0.69089110    -0.04700
C663        C  0.35219300  0.27805664  0.66175923    -0.01800
C664        C  0.37926093  0.30673511  0.63388861     0.03100
C665        C  0.31947641  0.42328017  0.65495797     0.37800
C666        C  0.35964933  0.22770418  0.65907985     0.37800
C667        C  0.41708793  0.28562888  0.60679210     0.36200
C668        C  0.26563871  0.36594278  0.71173056     0.36200
N669        N  0.44706190  0.26851076  0.58519218    -0.38600
N670        N  0.23341885  0.38327778  0.72952821    -0.38600
N671        N  0.36564660  0.18762722  0.65660119    -0.38100
N672        N  0.30885067  0.46209214  0.65142605    -0.38100
C673        C  0.69992642  0.31179936  0.30276924    -0.04700
C674        C  0.71149935  0.35447014  0.32676533    -0.01800
C675        C  0.67937260  0.37661276  0.35738904     0.03100
C676        C  0.63706260  0.35483411  0.36765461    -0.04700
C677        C  0.62693124  0.31057730  0.34749592    -0.01800
C678        C  0.65712294  0.28994575  0.31387192     0.03100
C679        C  0.75729074  0.37503110  0.32265353     0.37800
C680        C  0.58501091  0.28629986  0.36092171     0.37800
C681        C  0.64229729  0.24708869  0.29031082     0.36200
C682        C  0.69048928  0.42142865  0.37975641     0.36200
N683        N  0.62899178  0.21268491  0.27291594    -0.38600
N684        N  0.69913025  0.45711391  0.39768409    -0.38600
N685        N  0.55217872  0.26620082  0.37199808    -0.38100
N686        N  0.79338067  0.39263635  0.32059954    -0.38100
C687        C  0.36687437  0.61512919  0.37404274    -0.04700
C688        C  0.38627723  0.62765594  0.33164698    -0.01800
C689        C  0.36069202  0.65548437  0.30141278     0.03100
C690        C  0.31619684  0.67420752  0.31457093    -0.04700
C691        C  0.29501246  0.65610490  0.35494274    -0.01800
C692        C  0.32112101  0.62890227  0.38539309     0.03100
C693        C  0.43300047  0.61176305  0.31885723     0.37800
C694        C  0.24548835  0.66169215  0.36427045     0.37800
C695        C  0.30028639  0.61365152  0.42795930     0.36200
C696        C  0.37950103  0.66033130  0.25549333     0.36200
N697        N  0.28366016  0.60161813  0.46189397    -0.38600
N698        N  0.39632350  0.66298987  0.21942546    -0.38600
N699        N  0.20617033  0.66611013  0.37260038    -0.38100
N700        N  0.47009523  0.59891905  0.30860839    -0.38100
C701        C  0.69074875  0.67754848  0.31807556    -0.04700
C702        C  0.67928134  0.63137624  0.30226518    -0.01800
C703        C  0.65672630  0.60035904  0.33143620     0.03100
C704        C  0.63389185  0.61726687  0.37203172    -0.04700
C705        C  0.63922550  0.66544468  0.38501860    -0.01800
C706        C  0.66752387  0.69501065  0.35863078     0.03100
C707        C  0.68393219  0.61660647  0.25410236     0.37800
C708        C  0.61539314  0.68585462  0.42527390     0.37800
C709        C  0.66934512  0.74433111  0.37219349     0.36200
C710        C  0.65937997  0.55076769  0.31929141     0.36200
N711        N  0.67023056  0.78337427  0.38409355    -0.38600
N712        N  0.66275214  0.51145949  0.30872434    -0.38600
N713        N  0.59660566  0.70274385  0.45714903    -0.38100
N714        N  0.68718949  0.60401015  0.21588186    -0.38100
C715        C  0.69419193  0.29985771  0.68845833    -0.04700
C716        C  0.66111261  0.27895866  0.65804511    -0.01800
C717        C  0.63419210  0.30669940  0.62873095     0.03100
C718        C  0.64250248  0.35534741  0.62658534    -0.04700
C719        C  0.68003191  0.37477363  0.65203117    -0.01800
C720        C  0.70435425  0.34789528  0.68426516     0.03100
C721        C  0.65553093  0.22846938  0.65580007     0.37800
C722        C  0.69580578  0.42157512  0.64279253     0.37800
C723        C  0.73867183  0.37068879  0.71371974     0.36200
C724        C  0.59707941  0.28481140  0.60203538     0.36200
N725        N  0.76587177  0.39005072  0.73658636    -0.38600
N726        N  0.56751148  0.26708652  0.58089710    -0.38600
N727        N  0.70953497  0.45826400  0.63439663    -0.38100
N728        N  0.65120270  0.18823006  0.65403655    -0.38100
C729        C  0.31774368  0.69813975  0.69045063    -0.04700
C730        C  0.32513464  0.65209924  0.70604929    -0.01800
C731        C  0.35394161  0.61987651  0.68051400     0.03100
C732        C  0.37890486  0.63419249  0.64138037    -0.04700
C733        C  0.37901428  0.68246835  0.63218734    -0.01800
C734        C  0.34680211  0.71335396  0.65415119     0.03100
C735        C  0.30458849  0.63711665  0.74863120     0.37800
C736        C  0.41482486  0.70195936  0.60315956     0.37800
C737        C  0.34446558  0.76097351  0.63842167     0.36200
C738        C  0.35861347  0.57228450  0.69564199     0.36200
N739        N  0.34221180  0.79804111  0.62379533    -0.38600
N740        N  0.36270573  0.53464752  0.70851966    -0.38600
N741        N  0.44347894  0.71818458  0.58066325    -0.38100
N742        N  0.28995360  0.62410234  0.78307486    -0.38100
C743        C  0.35981037  0.35550416  0.37626620    -0.04700
C744        C  0.31105636  0.36134892  0.37872336    -0.01800
C745        C  0.28231314  0.33958850  0.34496452     0.03100
C746        C  0.30224206  0.31104259  0.30897502    -0.04700
C747        C  0.35086974  0.30289310  0.30851629    -0.01800
C748        C  0.37956799  0.32591782  0.34140643     0.03100
C749        C  0.29056789  0.39023203  0.41569737     0.37800
C750        C  0.37189808  0.27189517  0.27358960     0.37800
C751        C  0.42980304  0.32072801  0.33829756     0.36200
C752        C  0.23208230  0.34539070  0.34819103     0.36200
N753        N  0.46992142  0.31724060  0.33560161    -0.38600
N754        N  0.19200552  0.34986309  0.35070787    -0.38600
N755        N  0.38938669  0.24692065  0.24634500    -0.38100
N756        N  0.27417338  0.41310266  0.44529725    -0.38100
loop_ 
_geom_bond_atom_site_label_1 
_geom_bond_atom_site_label_2 
_geom_bond_distance 
_geom_bond_site_symmetry_2 
_ccdc_geom_bond_type 
C1           N19   1.352       .  A
C1           C38   1.455       .  S
C1          C687   1.478       .  S
N2           N19   1.326       .  A
N2           N24   1.317       .  A
N2          Co39   2.087       .  S
C3           N28   1.341       .  A
C3           C41   1.458       .  S
C3           H48   1.081       .  S
H4           C45   1.081       .  S
C5           N29   1.343       .  A
C5            C9   1.466       .  S
C5           H34   1.080       .  S
Co6          N24   2.064       .  S
Co6          N14   2.077       .  S
Co6          N46   2.084       .  S
Co6          N22   2.078       .  S
Co6         Cl50   2.454       .  S
N7           C45   1.345       .  A
N7           N14   1.318       .  A
N7           Co8   2.093       .  S
Co8          N11   2.072       .  S
Co8          N28   2.081       .  S
Co8          N15   2.093       .  S
Co8         Cl50   2.441       .  S
C9           N47   1.346       .  A
C9          C659   1.487       .  S
N10          N17   1.319       .  A
N10          N40   1.328       .  A
N10         Co43   2.097       .  S
N11          N29   1.320       .  A
N11          N47   1.320       .  A
N12          C41   1.348       .  A
N12          N22   1.323       .  A
H13          C38   1.082       .  S
N14          N35   1.323       .  A
N15          N33   1.321       .  A
N15          N20   1.325       .  A
C16          N20   1.351       .  A
C16          C44   1.466       .  S
C16         C718   1.498       .  S
N17          C32   1.334       .  A
N17         Co39   2.078       .  S
C18          N46   1.339       .  A
C18          C21   1.475       .  S
C18          H52   1.080       .  S
C21          N42   1.351       .  A
C21         C704   1.510       .  S
N22          N28   1.320       .  A
N23          C49   1.335       .  A
N23          N25   1.318       .  A
N23         Co39   2.079       .  S
N24          C38   1.335       .  A
N25          N53   1.326       .  A
N25         Co43   2.086       .  S
H26          C49   1.079       .  S
H27          C44   1.080       .  S
N29         Co43   2.091       .  S
N30          N42   1.321       .  A
N30          N46   1.315       .  A
N30         Co39   2.075       .  S
C31          N35   1.347       .  A
C31          C45   1.464       .  S
C31         C743   1.481       .  S
C32          C51   1.464       .  S
C32          H36   1.080       .  S
N33          C44   1.344       .  A
N33         Co43   2.098       .  S
C37          N53   1.355       .  A
C37          C49   1.463       .  S
C37         C645   1.500       .  S
Co39        Cl50   2.425       .  S
N40          C51   1.357       .  A
C41         C676   1.478       .  S
Co43        Cl50   2.473       .  S
C51         C732   1.505       .  S
C54          N72   1.355       .  A
C54          C91   1.460       .  S
C54         C631   1.494       .  S
N55          N72   1.326       .  A
N55          N77   1.320       .  A
N55         Co92   2.097       .  S
C56          N81   1.341       .  A
C56          C94   1.456       .  S
C56         H101   1.081       .  S
H57          C98   1.081       .  S
C58          N82   1.344       .  A
C58          C62   1.467       .  S
C58          H87   1.081       .  S
Co59         N77   2.079       .  S
Co59         N67   2.070       .  S
Co59         N99   2.079   1_556  S
Co59         N75   2.085   1_556  S
Co59       Cl103   2.444   1_655  S
N60          C98   1.344       .  A
N60          N67   1.320       .  A
N60         Co61   2.093   1_655  S
Co61         N64   2.085       .  S
Co61         N81   2.083   1_456  S
Co61         N68   2.083   1_556  S
Co61       Cl103   2.459       .  S
C62         N100   1.350       .  A
C62         C578   1.497       .  S
N63          N70   1.319       .  A
N63          N93   1.324       .  A
N63         Co96   2.094       .  S
N64          N82   1.322       .  A
N64         N100   1.324       .  A
N65          C94   1.349       .  A
N65          N75   1.324       .  A
H66          C91   1.081       .  S
N67          N88   1.322       .  A
N68          N86   1.321       .  A
N68          N73   1.325       .  A
C69          N73   1.348       .  A
C69          C97   1.456       .  S
C69         C550   1.477       .  S
N70          C85   1.340       .  A
N70         Co92   2.086   1_455  S
C71          N99   1.340       .  A
C71          C74   1.457       .  S
C71         H105   1.082       .  S
C74          N95   1.350       .  A
C74         C620   1.482       .  S
N75          N81   1.320       .  A
N76         C102   1.336       .  A
N76          N78   1.318       .  A
N76         Co92   2.076   1_454  S
N77          C91   1.337       .  A
N78         N106   1.328       .  A
N78         Co96   2.110   1_554  S
H79         C102   1.079       .  S
H80          C97   1.081       .  S
N82         Co96   2.102       .  S
N83          N95   1.326       .  A
N83          N99   1.320       .  A
N83         Co92   2.090   1_554  S
C84          N88   1.344       .  A
C84          C98   1.463       .  S
C84         C592   1.480       .  S
C85         C104   1.472       .  S
C85          H89   1.080       .  S
N86          C97   1.340       .  A
N86         Co96   2.083   1_554  S
C90         N106   1.359       .  A
C90         C102   1.467       .  S
C90         C533   1.513       .  S
Co92       Cl103   2.462   1_655  S
N93         C104   1.354       .  A
C94         C564   1.477       .  S
Co96       Cl103   2.446       .  S
C104        C603   1.513       .  S
C107        C108   1.544       .  S
C107        C113   1.530       .  S
C107        C111   1.545       .  S
C107        C519   1.563       .  S
C108        H115   1.076       .  S
C108        C109   1.365       .  D
C109        C110   1.542       .  S
C109        C715   1.505       .  S
C110        C114   1.545       .  S
C110        C112   1.548       .  S
C110        H116   1.108       .  S
C111        H117   1.086       .  S
C111        C112   1.376       .  D
C112        C505   1.508       .  S
C113        H118   1.086       .  S
C113        C114   1.366       .  D
C114        C634   1.501       .  S
C119        N137   1.354       .  A
C119        C156   1.456       .  S
C119        C466   1.488       .  S
N120        N137   1.327       .  A
N120        N142   1.319       .  A
N120       Co157   2.095   1_546  S
C121        N146   1.348       .  A
C121        C159   1.474       .  S
C121        H166   1.081       .  S
H122        C163   1.081       .  S
C123        N147   1.342       .  A
C123        C127   1.465       .  S
C123        H152   1.081       .  S
Co124       N142   2.069   1_554  S
Co124       N132   2.083   1_554  S
Co124       N164   2.082       .  S
Co124       N140   2.071       .  S
Co124      Cl168   2.436   1_545  S
N125        C163   1.341       .  A
N125        N132   1.317       .  A
N125       Co126   2.083   1_546  S
Co126       N129   2.092   1_554  S
Co126       N146   2.109   1_565  S
Co126       N133   2.083       .  S
Co126      Cl168   2.466       .  S
C127        N165   1.353       .  A
C127        C449   1.500       .  S
N128        N135   1.322       .  A
N128        N158   1.327       .  A
N128       Co161   2.097   1_556  S
N129        N147   1.321       .  A
N129        N165   1.325       .  A
N130        C159   1.347       .  A
N130        N140   1.320       .  A
H131        C156   1.081       .  S
N132        N153   1.324       .  A
N133        N151   1.320       .  A
N133        N138   1.325       .  A
C134        N138   1.352       .  A
C134        C162   1.473       .  S
C134        C477   1.509       .  S
N135        C150   1.342       .  A
N135       Co157   2.091   1_556  S
C136        N164   1.339       .  A
C136        C139   1.461       .  S
C136        H170   1.082       .  S
C139        N160   1.356       .  A
C139        C424   1.497       .  S
N140        N146   1.319       .  A
N141        C167   1.338       .  A
N141        N143   1.320       .  A
N141       Co157   2.083       .  S
N142        C156   1.335       .  A
N143        N171   1.325       .  A
N143       Co161   2.098       .  S
H144        C167   1.080       .  S
H145        C162   1.080       .  S
N147       Co161   2.094   1_556  S
N148        N160   1.329       .  A
N148        N164   1.319       .  A
N148       Co157   2.105   1_545  S
C149        N153   1.351       .  A
C149        C163   1.467       .  S
C149        C522   1.497       .  S
C150        C169   1.459       .  S
C150        H154   1.081       .  S
N151        C162   1.341       .  A
N151       Co161   2.100       .  S
C155        N171   1.355       .  A
C155        C167   1.466       .  S
C155        C435   1.506       .  S
Co157      Cl168   2.467       .  S
N158        C169   1.350       .  A
C159        C407   1.502       .  S
Co161      Cl168   2.444       .  S
C169        C494   1.485       .  S
C172        C173   1.530       .  S
C172        C178   1.533       .  S
C172        C176   1.551       .  S
C172        C393   1.555       .  S
C173        H180   1.086       .  S
C173        C174   1.359       .  D
C174        C175   1.559       .  S
C174        C575   1.494       .  S
C175        C179   1.549       .  S
C175        C177   1.544       .  S
C175        H181   1.105       .  S
C176        H182   1.080       .  S
C176        C177   1.369       .  D
C177        C491   1.510       .  S
C178        H183   1.086       .  S
C178        C179   1.369       .  D
C179        C729   1.517       .  S
C184        N202   1.358       .  A
C184        C221   1.458       .  S
C184        C508   1.496       .  S
N185        N202   1.328       .  A
N185        N207   1.319       .  A
N185       Co222   2.101       .  S
C186        N211   1.338       .  A
C186        C224   1.457       .  S
C186        H231   1.082       .  S
H187        C228   1.082       .  S
C188        N212   1.338       .  A
C188        C192   1.468       .  S
C188        H217   1.080       .  S
Co189       N207   2.073   1_455  S
Co189       N197   2.072       .  S
Co189       N229   2.076   1_445  S
Co189       N205   2.076   1_545  S
Co189      Cl233   2.431       .  S
N190        C228   1.346       .  A
N190        N197   1.319       .  A
N190       Co191   2.100       .  S
Co191       N194   2.079       .  S
Co191       N211   2.071   1_545  S
Co191       N198   2.085   1_545  S
Co191      Cl233   2.457       .  S
C192        N230   1.351       .  A
C192        C323   1.497       .  S
N193        N200   1.320       .  A
N193        N223   1.322       .  A
N193       Co226   2.083       .  S
N194        N212   1.319       .  A
N194        N230   1.323       .  A
N195        C224   1.348       .  A
N195        N205   1.323       .  A
H196        C221   1.081       .  S
N197        N218   1.321       .  A
N198        N216   1.317       .  A
N198        N203   1.321       .  A
C199        N203   1.352       .  A
C199        C227   1.474       .  S
C199        C351   1.511       .  S
N200        C215   1.344       .  A
N200       Co222   2.096       .  S
C201        N229   1.338       .  A
C201        C204   1.458       .  S
C201        H235   1.082       .  S
C204        N225   1.352       .  A
C204        C337   1.486       .  S
N205        N211   1.318       .  A
N206        C232   1.336       .  A
N206        N208   1.321       .  A
N206       Co222   2.071   1_565  S
N207        C221   1.335       .  A
N208        N236   1.326       .  A
N208       Co226   2.098   1_565  S
H209        C232   1.082       .  S
H210        C227   1.080       .  S
N212       Co226   2.087   1_455  S
N213        N225   1.327       .  A
N213        N229   1.318       .  A
N213       Co222   2.092   1_565  S
C214        N218   1.347       .  A
C214        C228   1.469       .  S
C214        C312   1.493       .  S
C215        C234   1.474       .  S
C215        H219   1.079       .  S
N216        C227   1.344       .  A
N216       Co226   2.092   1_465  S
C220        N236   1.353       .  A
C220        C232   1.454       .  S
C220        C368   1.483       .  S
Co222      Cl233   2.465   1_655  S
N223        C234   1.350       .  A
C224        C396   1.473       .  S
Co226      Cl233   2.441   1_655  S
C234        C382   1.507       .  S
C237        C238   1.529       .  S
C237        C243   1.541       .  S
C237        C241   1.543       .  S
C237        C701   1.556       .  S
C238        H245   1.086       .  S
C238        C239   1.367       .  D
C239        C240   1.551       .  S
C239        C480   1.507       .  S
C240        C244   1.542       .  S
C240        C242   1.544       .  S
C240        H246   1.108       .  S
C241        H247   1.080       .  S
C241        C242   1.365       .  D
C242        C561   1.505       .  S
C243        H248   1.085       .  S
C243        C244   1.366       .  D
C244        C365   1.488       .  S
C249        C250   1.543       .  S
C249        C255   1.537       .  S
C249        C253   1.541       .  S
C249        C536   1.566       .  S
C250        H257   1.080       .  S
C250        C251   1.366       .  D
C251        C252   1.538       .  S
C251        C326   1.490       .  S
C252        C256   1.547       .  S
C252        C254   1.540       .  S
C252        H258   1.107       .  S
C253        H259   1.086       .  S
C253        C254   1.366       .  D
C254        C746   1.495       .  S
C255        H260   1.085       .  S
C255        C256   1.372       .  D
C256        C421   1.517       .  S
C261        C262   1.535       .  S
C261        C267   1.545       .  S
C261        C265   1.543       .  S
C261        C617   1.561       .  S
C262        H269   1.086       .  S
C262        C263   1.369       .  D
C263        C264   1.545       .  S
C263        C673   1.509       .  S
C264        C268   1.541       .  S
C264        C266   1.537       .  S
C264        H270   1.107       .  S
C265        H271   1.085       .  S
C265        C266   1.365       .  D
C266        C379   1.495       .  S
C267        H272   1.081       .  S
C267        C268   1.368       .  D
C268        C410   1.497       .  S
C273        C274   1.529       .  S
C273        C279   1.537       .  S
C273        C277   1.544       .  S
C273        C690   1.554       .  S
C274        H281   1.086       .  S
C274        C275   1.367       .  D
C275        C276   1.548       .  S
C275        C547   1.504       .  S
C276        C280   1.543       .  S
C276        C278   1.546       .  S
C276        H282   1.109       .  S
C277        H283   1.084       .  S
C277        C278   1.369       .  D
C278        C438   1.497       .  S
C279        H284   1.084       .  S
C279        C280   1.362       .  D
C280        C354   1.498       .  S
C285        C286   1.542       .  S
C285        C291   1.545       .  S
C285        C289   1.526       .  S
C285        C463   1.554       .  S
C286        H293   1.080       .  S
C286        C287   1.367       .  D
C287        C288   1.545       .  S
C287        C309   1.508       .  S
C288        C292   1.542       .  S
C288        C290   1.545       .  S
C288        H294   1.108       .  S
C289        H295   1.087       .  S
C289        C290   1.366       .  D
C290        C662   1.496       .  S
C291        H296   1.085       .  S
C291        C292   1.368       .  D
C292        C606   1.496       .  S
C297        C298   1.538       .  S
C297        C303   1.529       .  S
C297        C301   1.545       .  S
C297        C340   1.557       .  S
C298        H305   1.084       .  S
C298        C299   1.364       .  D
C299        C300   1.542       .  S
C299        C648   1.495       .  S
C300        C304   1.548       .  S
C300        C302   1.544       .  S
C300        H306   1.108       .  S
C301        H307   1.084       .  S
C301        C302   1.367       .  D
C302        C452   1.496       .  S
C303        H308   1.086       .  S
C303        C304   1.369       .  D
C304        C589   1.505       .  S
C309        C310   1.419       .  A
C309        C314   1.421       .  A
C310        C311   1.415       .  A
C310        C315   1.448       .  S
C311        C312   1.410       .  A
C311        C318   1.449       .  S
C312        C313   1.416       .  A
C313        C314   1.410       .  A
C313        C316   1.453       .  S
C314        C317   1.453       .  S
C315        N322   1.157       .  T
C316        N321   1.158       .  T
C317        N319   1.158       .  T
C318        N320   1.157       .  T
C323        C324   1.418       .  A
C323        C328   1.419       .  A
C324        C325   1.408       .  A
C324        C329   1.451       .  S
C325        C326   1.411       .  A
C325        C332   1.453       .  S
C326        C327   1.409       .  A
C327        C328   1.413       .  A
C327        C330   1.449       .  S
C328        C331   1.449       .  S
C329        N336   1.158       .  T
C330        N335   1.157       .  T
C331        N333   1.156       .  T
C332        N334   1.157       .  T
C337        C338   1.409       .  A
C337        C342   1.405       .  A
C338        C339   1.413       .  A
C338        C343   1.452       .  S
C339        C340   1.427       .  A
C339        C346   1.449       .  S
C340        C341   1.430       .  A
C341        C342   1.414       .  A
C341        C344   1.451       .  S
C342        C345   1.452       .  S
C343        N350   1.157       .  T
C344        N349   1.158       .  T
C345        N347   1.157       .  T
C346        N348   1.157       .  T
C351        C352   1.423       .  A
C351        C356   1.425       .  A
C352        C353   1.418       .  A
C352        C357   1.448       .  S
C353        C354   1.410       .  A
C353        C360   1.451       .  S
C354        C355   1.413       .  A
C355        C356   1.411       .  A
C355        C358   1.455       .  S
C356        C359   1.453       .  S
C357        N364   1.157       .  T
C358        N363   1.157       .  T
C359        N361   1.158       .  T
C360        N362   1.157       .  T
C365        C366   1.412       .  A
C365        C370   1.412       .  A
C366        C367   1.411       .  A
C366        C371   1.446       .  S
C367        C368   1.409       .  A
C367        C374   1.450       .  S
C368        C369   1.415       .  A
C369        C370   1.409       .  A
C369        C372   1.451       .  S
C370        C373   1.451       .  S
C371        N378   1.156       .  T
C372        N377   1.157       .  T
C373        N375   1.157       .  T
C374        N376   1.157       .  T
C379        C380   1.412       .  A
C379        C384   1.410       .  A
C380        C381   1.413       .  A
C380        C385   1.453       .  S
C381        C382   1.425       .  A
C381        C388   1.452       .  S
C382        C383   1.419       .  A
C383        C384   1.413       .  A
C383        C386   1.447       .  S
C384        C387   1.451       .  S
C385        N392   1.157       .  T
C386        N391   1.157       .  T
C387        N389   1.157       .  T
C388        N390   1.158       .  T
C393        C394   1.429       .  A
C393        C398   1.432       .  A
C394        C395   1.410       .  A
C394        C399   1.447       .  S
C395        C396   1.404       .  A
C395        C402   1.456       .  S
C396        C397   1.401       .  A
C397        C398   1.411       .  A
C397        C400   1.453       .  S
C398        C401   1.452       .  S
C399        N406   1.157       .  T
C400        N405   1.157       .  T
C401        N403   1.157       .  T
C402        N404   1.158       .  T
C407        C408   1.416       .  A
C407        C412   1.422       .  A
C408        C409   1.417       .  A
C408        C413   1.448       .  S
C409        C410   1.411       .  A
C409        C416   1.448       .  S
C410        C411   1.411       .  A
C411        C412   1.409       .  A
C411        C414   1.453       .  S
C412        C415   1.452       .  S
C413        N420   1.157       .  T
C414        N419   1.157       .  T
C415        N417   1.158       .  T
C416        N418   1.157       .  T
C421        C422   1.421       .  A
C421        C426   1.424       .  A
C422        C423   1.411       .  A
C422        C427   1.451       .  S
C423        C424   1.411       .  A
C423        C430   1.448       .  S
C424        C425   1.409       .  A
C425        C426   1.420       .  A
C425        C428   1.450       .  S
C426        C429   1.448       .  S
C427        N434   1.156       .  T
C428        N433   1.157       .  T
C429        N431   1.157       .  T
C430        N432   1.155       .  T
C435        C436   1.422       .  A
C435        C440   1.421       .  A
C436        C437   1.415       .  A
C436        C441   1.449       .  S
C437        C438   1.409       .  A
C437        C444   1.449       .  S
C438        C439   1.412       .  A
C439        C440   1.413       .  A
C439        C442   1.451       .  S
C440        C443   1.452       .  S
C441        N448   1.157       .  T
C442        N447   1.157       .  T
C443        N445   1.158       .  T
C444        N446   1.156       .  T
C449        C450   1.417       .  A
C449        C454   1.418       .  A
C450        C451   1.416       .  A
C450        C455   1.451       .  S
C451        C452   1.411       .  A
C451        C458   1.447       .  S
C452        C453   1.412       .  A
C453        C454   1.413       .  A
C453        C456   1.452       .  S
C454        C457   1.451       .  S
C455        N462   1.157       .  T
C456        N461   1.157       .  T
C457        N459   1.157       .  T
C458        N460   1.156       .  T
C463        C464   1.428       .  A
C463        C468   1.424       .  A
C464        C465   1.412       .  A
C464        C469   1.450       .  S
C465        C466   1.406       .  A
C465        C472   1.452       .  S
C466        C467   1.412       .  A
C467        C468   1.412       .  A
C467        C470   1.450       .  S
C468        C471   1.450       .  S
C469        N476   1.158       .  T
C470        N475   1.156       .  T
C471        N473   1.156       .  T
C472        N474   1.157       .  T
C477        C478   1.421       .  A
C477        C482   1.416       .  A
C478        C479   1.418       .  A
C478        C483   1.449       .  S
C479        C480   1.414       .  A
C479        C486   1.449       .  S
C480        C481   1.418       .  A
C481        C482   1.412       .  A
C481        C484   1.452       .  S
C482        C485   1.451       .  S
C483        N490   1.157       .  T
C484        N489   1.157       .  T
C485        N487   1.158       .  T
C486        N488   1.157       .  T
C491        C492   1.418       .  A
C491        C496   1.421       .  A
C492        C493   1.417       .  A
C492        C497   1.446       .  S
C493        C494   1.410       .  A
C493        C500   1.451       .  S
C494        C495   1.404       .  A
C495        C496   1.413       .  A
C495        C498   1.452       .  S
C496        C499   1.446       .  S
C497        N504   1.157       .  T
C498        N503   1.157       .  T
C499        N501   1.156       .  T
C500        N502   1.157       .  T
C505        C506   1.415       .  A
C505        C510   1.419       .  A
C506        C507   1.411       .  A
C506        C511   1.447       .  S
C507        C508   1.416       .  A
C507        C514   1.451       .  S
C508        C509   1.409       .  A
C509        C510   1.416       .  A
C509        C512   1.449       .  S
C510        C513   1.447       .  S
C511        N518   1.155       .  T
C512        N517   1.156       .  T
C513        N515   1.157       .  T
C514        N516   1.157       .  T
C519        C520   1.425       .  A
C519        C524   1.427       .  A
C520        C521   1.416       .  A
C520        C525   1.448       .  S
C521        C522   1.414       .  A
C521        C528   1.453       .  S
C522        C523   1.412       .  A
C523        C524   1.412       .  A
C523        C526   1.453       .  S
C524        C527   1.449       .  S
C525        N532   1.156       .  T
C526        N531   1.157       .  T
C527        N529   1.158       .  T
C528        N530   1.158       .  T
C533        C534   1.416       .  A
C533        C538   1.417       .  A
C534        C535   1.411       .  A
C534        C539   1.452       .  S
C535        C536   1.425       .  A
C535        C542   1.449       .  S
C536        C537   1.431       .  A
C537        C538   1.421       .  A
C537        C540   1.452       .  S
C538        C541   1.452       .  S
C539        N546   1.158       .  T
C540        N545   1.157       .  T
C541        N543   1.158       .  T
C542        N544   1.158       .  T
C547        C548   1.419       .  A
C547        C552   1.423       .  A
C548        C549   1.414       .  A
C548        C553   1.448       .  S
C549        C550   1.408       .  A
C549        C556   1.451       .  S
C550        C551   1.404       .  A
C551        C552   1.409       .  A
C551        C554   1.453       .  S
C552        C555   1.450       .  S
C553        N560   1.157       .  T
C554        N559   1.157       .  T
C555        N557   1.157       .  T
C556        N558   1.157       .  T
C561        C562   1.426       .  A
C561        C566   1.419       .  A
C562        C563   1.411       .  A
C562        C567   1.452       .  S
C563        C564   1.404       .  A
C563        C570   1.452       .  S
C564        C565   1.407       .  A
C565        C566   1.412       .  A
C565        C568   1.452       .  S
C566        C569   1.448       .  S
C567        N574   1.158       .  T
C568        N573   1.157       .  T
C569        N571   1.157       .  T
C570        N572   1.157       .  T
C575        C576   1.411       .  A
C575        C580   1.412       .  A
C576        C577   1.414       .  A
C576        C581   1.450       .  S
C577        C578   1.415       .  A
C577        C584   1.450       .  S
C578        C579   1.419       .  A
C579        C580   1.413       .  A
C579        C582   1.451       .  S
C580        C583   1.453       .  S
C581        N588   1.157       .  T
C582        N587   1.157       .  T
C583        N585   1.157       .  T
C584        N586   1.157       .  T
C589        C590   1.418       .  A
C589        C594   1.420       .  A
C590        C591   1.415       .  A
C590        C595   1.448       .  S
C591        C592   1.412       .  A
C591        C598   1.452       .  S
C592        C593   1.405       .  A
C593        C594   1.408       .  A
C593        C596   1.452       .  S
C594        C597   1.450       .  S
C595        N602   1.157       .  T
C596        N601   1.157       .  T
C597        N599   1.157       .  T
C598        N600   1.157       .  T
C603        C604   1.426       .  A
C603        C608   1.423       .  A
C604        C605   1.414       .  A
C604        C609   1.452       .  S
C605        C606   1.410       .  A
C605        C612   1.452       .  S
C606        C607   1.406       .  A
C607        C608   1.415       .  A
C607        C610   1.449       .  S
C608        C611   1.447       .  S
C609        N616   1.158       .  T
C610        N615   1.156       .  T
C611        N613   1.157       .  T
C612        N614   1.157       .  T
C617        C618   1.431       .  A
C617        C622   1.433       .  A
C618        C619   1.415       .  A
C618        C623   1.448       .  S
C619        C620   1.406       .  A
C619        C626   1.453       .  S
C620        C621   1.401       .  A
C621        C622   1.413       .  A
C621        C624   1.453       .  S
C622        C625   1.451       .  S
C623        N630   1.157       .  T
C624        N629   1.157       .  T
C625        N627   1.157       .  T
C626        N628   1.157       .  T
C631        C632   1.417       .  A
C631        C636   1.411       .  A
C632        C633   1.410       .  A
C632        C637   1.451       .  S
C633        C634   1.418       .  A
C633        C640   1.454       .  S
C634        C635   1.416       .  A
C635        C636   1.414       .  A
C635        C638   1.449       .  S
C636        C639   1.450       .  S
C637        N644   1.158       .  T
C638        N643   1.157       .  T
C639        N641   1.157       .  T
C640        N642   1.157       .  T
C645        C646   1.420       .  A
C645        C650   1.417       .  A
C646        C647   1.409       .  A
C646        C651   1.451       .  S
C647        C648   1.414       .  A
C647        C654   1.454       .  S
C648        C649   1.412       .  A
C649        C650   1.414       .  A
C649        C652   1.450       .  S
C650        C653   1.449       .  S
C651        N658   1.158       .  T
C652        N657   1.157       .  T
C653        N655   1.157       .  T
C654        N656   1.157       .  T
C659        C660   1.412       .  A
C659        C664   1.416       .  A
C660        C661   1.412       .  A
C660        C665   1.451       .  S
C661        C662   1.414       .  A
C661        C668   1.447       .  S
C662        C663   1.416       .  A
C663        C664   1.408       .  A
C663        C666   1.453       .  S
C664        C667   1.453       .  S
C665        N672   1.157       .  T
C666        N671   1.157       .  T
C667        N669   1.158       .  T
C668        N670   1.157       .  T
C673        C674   1.425       .  A
C673        C678   1.423       .  A
C674        C675   1.409       .  A
C674        C679   1.449       .  S
C675        C676   1.404       .  A
C675        C682   1.453       .  S
C676        C677   1.408       .  A
C677        C678   1.413       .  A
C677        C680   1.451       .  S
C678        C681   1.449       .  S
C679        N686   1.156       .  T
C680        N685   1.157       .  T
C681        N683   1.157       .  T
C682        N684   1.157       .  T
C687        C688   1.408       .  A
C687        C692   1.402       .  A
C688        C689   1.410       .  A
C688        C693   1.455       .  S
C689        C690   1.426       .  A
C689        C696   1.448       .  S
C690        C691   1.433       .  A
C691        C692   1.412       .  A
C691        C694   1.452       .  S
C692        C695   1.453       .  S
C693        N700   1.157       .  T
C694        N699   1.158       .  T
C695        N697   1.157       .  T
C696        N698   1.157       .  T
C701        C702   1.423       .  A
C701        C706   1.424       .  A
C702        C703   1.407       .  A
C702        C707   1.451       .  S
C703        C704   1.414       .  A
C703        C710   1.450       .  S
C704        C705   1.424       .  A
C705        C706   1.418       .  A
C705        C708   1.454       .  S
C706        C709   1.452       .  S
C707        N714   1.157       .  T
C708        N713   1.158       .  T
C709        N711   1.157       .  T
C710        N712   1.158       .  T
C715        C716   1.419       .  A
C715        C720   1.415       .  A
C716        C717   1.412       .  A
C716        C721   1.453       .  S
C717        C718   1.416       .  A
C717        C724   1.451       .  S
C718        C719   1.413       .  A
C719        C720   1.415       .  A
C719        C722   1.449       .  S
C720        C723   1.449       .  S
C721        N728   1.157       .  T
C722        N727   1.157       .  T
C723        N725   1.157       .  T
C724        N726   1.157       .  T
C729        C730   1.422       .  A
C729        C734   1.423       .  A
C730        C731   1.420       .  A
C730        C735   1.447       .  S
C731        C732   1.415       .  A
C731        C738   1.450       .  S
C732        C733   1.415       .  A
C733        C734   1.409       .  A
C733        C736   1.453       .  S
C734        C737   1.453       .  S
C735        N742   1.158       .  T
C736        N741   1.158       .  T
C737        N739   1.157       .  T
C738        N740   1.157       .  T
C743        C744   1.408       .  A
C743        C748   1.410       .  A
C744        C745   1.413       .  A
C744        C749   1.451       .  S
C745        C746   1.419       .  A
C745        C752   1.451       .  S
C746        C747   1.412       .  A
C747        C748   1.411       .  A
C747        C750   1.449       .  S
C748        C751   1.450       .  S
C749        N756   1.157       .  T
C750        N755   1.157       .  T
C751        N753   1.156       .  T
C752        N754   1.157       .  T
