geometry optimzed in LAMMPS
_audit_creation_date              2020-11-30 
_audit_creation_method            'lammps2cif' 
_symmetry_space_group_name_H-M    'P1' 
_symmetry_Int_Tables_number       1 
_symmetry_cell_setting            triclinic 
loop_ 
_symmetry_equiv_pos_as_xyz 
  x,y,z 
_cell_length_a                    41.05825448 
_cell_length_b                    41.05079141571056 
_cell_length_c                    29.629216787460045 
_cell_angle_alpha                 89.47724546939253 
_cell_angle_beta                  90.0329946379711 
_cell_angle_gamma                 90.06196324692046 
loop_ 
_atom_site_label 
_atom_site_type_symbol 
_atom_site_fract_x 
_atom_site_fract_y 
_atom_site_fract_z 
_atom_site_charge 
C1          C  0.50373330  0.28323354  0.13279475     0.80000
N2          N  0.52244464  0.26650195  0.10290593    -0.78300
C3          C  0.52137270  0.23339351  0.10181800     0.82400
N4          N  0.50159978  0.21702448  0.13089360    -0.78300
C5          C  0.48267834  0.23344293  0.16052035     0.82500
N6          N  0.48362605  0.26646910  0.16116395    -0.80000
N7          N  0.53531325  0.64794347  0.12440859    -0.36800
N8          N  0.53521792  0.57700427  0.12466125    -0.57400
N9          N  0.46446617  0.57707078  0.11706691    -0.36800
N10         N  0.46414814  0.64791142  0.12339809    -0.57400
C11         C  0.56662925  0.64170455  0.13582059     0.26800
C12         C  0.52908149  0.67929760  0.13510864     0.26800
C13         C  0.47035842  0.54559295  0.12817351     0.26800
C14         C  0.43282012  0.58300346  0.12650162     0.26800
C15         C  0.56741495  0.58240161  0.11900157     0.35400
C16         C  0.53011163  0.54526484  0.11536812     0.35400
C17         C  0.46984951  0.68003578  0.11659467     0.35400
C18         C  0.43257941  0.64268206  0.11245690     0.35400
C19         C  0.58062447  0.66955349  0.15358420    -0.22100
C20         C  0.55690636  0.69326657  0.15323217    -0.22100
C21         C  0.44210070  0.53132679  0.14472514    -0.22100
C22         C  0.41835709  0.55494640  0.14355633    -0.22100
C23         C  0.58289971  0.55392585  0.10631655    -0.23200
C24         C  0.55921858  0.53037995  0.10390669    -0.23200
C25         C  0.44168638  0.69530413  0.10161413    -0.23200
C26         C  0.41807991  0.67161434  0.09892234    -0.23200
C27         C  0.58333227  0.61204677  0.12857383    -0.16100
C28         C  0.49954842  0.69609250  0.12641510    -0.18500
C29         C  0.41625170  0.61250710  0.11746570    -0.18500
C30         C  0.50006666  0.52898356  0.12123136    -0.18500
H31         H  0.60539978  0.67251992  0.16538586     0.14400
H32         H  0.55991650  0.71807112  0.16460697     0.14400
H33         H  0.43884335  0.50638985  0.15603024     0.14400
H34         H  0.39325020  0.55178471  0.15383554     0.14400
H35         H  0.60862328  0.55038241  0.10008660     0.12700
H36         H  0.56307243  0.50508219  0.09544179     0.12700
H37         H  0.43845011  0.72087998  0.09365737     0.12700
H38         H  0.39306069  0.67529424  0.08855304     0.12700
H39         H  0.51961345  0.63225199  0.10777908     0.25900
H40         H  0.48055895  0.59303586  0.10117626     0.25900
C41         C  0.82860175  0.60628812  0.12558313     0.80000
N42         N  0.84582744  0.62592401  0.09705203    -0.78300
C43         C  0.87893023  0.62537262  0.09767709     0.82400
N44         N  0.89468349  0.60596411  0.12781541    -0.78300
C45         C  0.87764818  0.58686493  0.15697161     0.82500
N46         N  0.84461125  0.58670007  0.15540729    -0.80000
C47         C  0.49988267  0.94212704  0.14161853     0.80000
N48         N  0.52055346  0.95869557  0.16911945    -0.78300
C49         C  0.52216884  0.99175766  0.16697706     0.82400
N50         N  0.50357593  0.00824164  0.13657233    -0.78300
C51         C  0.48338796  0.99191624  0.10842247     0.82500
N52         N  0.48147714  0.95893658  0.11117700    -0.80000
C53         C  0.17026820  0.60066625  0.12023953     0.80000
N54         N  0.15411644  0.62113055  0.14833900    -0.78300
C55         C  0.12104671  0.62076612  0.15013390     0.82400
N56         N  0.10412377  0.60054976  0.12272801    -0.78300
C57         C  0.11997608  0.58041720  0.09408100     0.82500
N58         N  0.15307492  0.58028949  0.09315552    -0.80000
C59         C  0.50605216  0.94093425  0.38652146     0.80000
N60         N  0.48584792  0.95713694  0.41493738    -0.78300
C61         C  0.48592138  0.99021860  0.41560707     0.82400
N62         N  0.50546125  0.00705592  0.38682432    -0.78300
C63         C  0.52516122  0.99104865  0.35780425     0.82500
N64         N  0.52561374  0.95801891  0.35791007    -0.80000
N65         N  0.46436743  0.57720645  0.35891812    -0.36800
N66         N  0.46319413  0.64785002  0.36530476    -0.57400
N67         N  0.53416624  0.64941067  0.36324628    -0.36800
N68         N  0.53533041  0.57884714  0.36308384    -0.57400
C69         C  0.43289827  0.58242919  0.37018804     0.26800
C70         C  0.47124693  0.54578760  0.36920004     0.26800
C71         C  0.52722402  0.68016031  0.37585690     0.26800
C72         C  0.56548903  0.64351294  0.37486737     0.26800
C73         C  0.43137258  0.64223196  0.35691209     0.35400
C74         C  0.46797516  0.68009576  0.35881692     0.35400
C75         C  0.53041463  0.54733312  0.35239506     0.35400
C76         C  0.56700481  0.58518401  0.35446296     0.35400
C77         C  0.41945313  0.55387325  0.38726656    -0.22100
C78         C  0.44370326  0.53073308  0.38672562    -0.22100
C79         C  0.55452052  0.69413907  0.39539474    -0.22100
C80         C  0.57868281  0.67091102  0.39493437    -0.22100
C81         C  0.41580205  0.67106462  0.34525727    -0.23200
C82         C  0.43905467  0.69511393  0.34646914    -0.23200
C83         C  0.55905586  0.53353156  0.33694967    -0.23200
C84         C  0.58228849  0.55758159  0.33819828    -0.23200
C85         C  0.41573217  0.61194360  0.36363125    -0.18500
C86         C  0.50134417  0.53011256  0.36125533    -0.18500
C87         C  0.58280941  0.61466572  0.36522141    -0.18500
C88         C  0.49745574  0.69643460  0.36789806    -0.18500
H89         H  0.39474114  0.55010289  0.39890992     0.14400
H90         H  0.44130042  0.50567019  0.39789870     0.14400
H91         H  0.55680188  0.71856974  0.40848583     0.14400
H92         H  0.60325297  0.67396393  0.40746304     0.14400
H93         H  0.39026589  0.67447733  0.33745332     0.12700
H94         H  0.43502549  0.72077934  0.33990931     0.12700
H95         H  0.56291949  0.50857420  0.32678237     0.12700
H96         H  0.60764300  0.55490612  0.32897837     0.12700
H97         H  0.47981720  0.59370176  0.34291795     0.25900
H98         H  0.51895950  0.63405869  0.34514986     0.25900
C99         C  0.17032678  0.60355801  0.37786134     0.80000
N100        N  0.15384588  0.62209142  0.34711575    -0.78300
C101        C  0.12103800  0.61977097  0.34300202     0.82400
N102        N  0.10425407  0.59929788  0.37060011    -0.78300
C103        C  0.12022197  0.58062649  0.40143186     0.82500
N104        N  0.15320804  0.58252302  0.40457643    -0.80000
C105        C  0.50509093  0.28439281  0.37910068     0.80000
N106        N  0.52475004  0.26775558  0.40833036    -0.78300
C107        C  0.52392647  0.23460213  0.40981195     0.82400
N108        N  0.50413186  0.21824951  0.38118109    -0.78300
C109        C  0.48489597  0.23459603  0.35150468     0.82500
N110        N  0.48511417  0.26767836  0.35085707    -0.80000
C111        C  0.82905561  0.60587220  0.37982382     0.80000
N112        N  0.84642379  0.62568054  0.40760903    -0.78300
C113        C  0.87953842  0.62498329  0.40744983     0.82400
N114        N  0.89531437  0.60506812  0.37845504    -0.78300
C115        C  0.87828638  0.58576284  0.34993808     0.82500
N116        N  0.84523984  0.58606396  0.35089791    -0.80000
C117        C  0.00848721  0.77350464  0.37785136     0.80000
N118        N  0.02627381  0.75662587  0.34723297    -0.78300
C119        C  0.02371801  0.72367628  0.34500683     0.82400
N120        N  0.00364411  0.70752881  0.37405760    -0.78300
C121        C  0.98575753  0.72422851  0.40468816     0.82500
N122        N  0.98796280  0.75717973  0.40608336    -0.80000
N123        N  0.03976781  0.13841313  0.40176000    -0.36800
N124        N  0.04188843  0.06780405  0.39708358    -0.57400
N125        N  0.97068126  0.06522956  0.40196554    -0.36800
N126        N  0.96846954  0.13602107  0.40089394    -0.57400
C127        C  0.07111822  0.13346420  0.38964608     0.26800
C128        C  0.03230457  0.16946085  0.39024027     0.26800
C129        C  0.97733453  0.03387134  0.39153069     0.26800
C130        C  0.93839177  0.07011645  0.39511707     0.26800
C131        C  0.07395546  0.07382627  0.40314564     0.35400
C132        C  0.03792399  0.03530433  0.40184828     0.35400
C133        C  0.97310984  0.16814417  0.40808195     0.35400
C134        C  0.93676157  0.12983103  0.40976648     0.35400
C135        C  0.08385181  0.16173329  0.37078580    -0.22100
C136        C  0.05930589  0.18445612  0.37102695    -0.22100
C137        C  0.94864827  0.01845036  0.37897774    -0.22100
C138        C  0.92420945  0.04132428  0.38091761    -0.22100
C139        C  0.09052289  0.04508147  0.41171992    -0.23200
C140        C  0.06781178  0.02063580  0.41034582    -0.23200
C141        C  0.94422173  0.18251917  0.42150104    -0.23200
C142        C  0.92117033  0.15821917  0.42263417    -0.23200
C143        C  0.08889015  0.10444815  0.39644159    -0.18500
C144        C  0.00229207  0.18511404  0.39855881    -0.18500
C145        C  0.92116041  0.09954061  0.40262702    -0.18500
C146        C  0.00826687  0.01844131  0.39483459    -0.18500
H147        H  0.10824796  0.16551795  0.35792313     0.14400
H148        H  0.06117097  0.20924931  0.35855453     0.14400
H149        H  0.94544532  0.99325732  0.36955135     0.14400
H150        H  0.89882715  0.03713025  0.37295510     0.14400
H151        H  0.11642511  0.04191143  0.41694029     0.12700
H152        H  0.07307232  0.99496502  0.41427576     0.12700
H153        H  0.94009432  0.20795339  0.42890630     0.12700
H154        H  0.89571728  0.16121992  0.43110713     0.12700
H155        H  0.02487108  0.12211460  0.41909658     0.25900
H156        H  0.98702628  0.08196200  0.41489230     0.25900
C157        C  0.33390299  0.11322300  0.38829083     0.80000
N158        N  0.35009838  0.13268449  0.35841858    -0.78300
C159        C  0.38316486  0.13213246  0.35670035     0.82400
N160        N  0.40001606  0.11228164  0.38523213    -0.78300
C161        C  0.38393526  0.09276057  0.41497017     0.82500
N162        N  0.35097630  0.09305993  0.41606382    -0.80000
C163        C  0.99835968  0.42998726  0.37293428     0.80000
N164        N  0.01771833  0.44617386  0.40271118    -0.78300
C165        C  0.01641255  0.47924322  0.40506187     0.82400
N166        N  0.99641700  0.49599326  0.37690502    -0.78300
C167        C  0.97725790  0.48018086  0.34703222     0.82500
N168        N  0.97787422  0.44710190  0.34545081    -0.80000
C169        C  0.67464749  0.10530780  0.39569318     0.80000
N170        N  0.65827683  0.08835097  0.36356884    -0.78300
C171        C  0.62555331  0.09158579  0.35878434     0.82400
N172        N  0.60898529  0.11185584  0.38638576    -0.78300
C173        C  0.62492981  0.12929558  0.41817200     0.82500
N174        N  0.65777256  0.12613704  0.42263107    -0.80000
C175        C  0.99763299  0.43270117  0.13449579     0.80000
N176        N  0.01650420  0.44841345  0.10334943    -0.78300
C177        C  0.01506955  0.48135050  0.09868297     0.82400
N178        N  0.99526281  0.49875742  0.12607326    -0.78300
C179        C  0.97634236  0.48325633  0.15706994     0.82500
N180        N  0.97721543  0.45036950  0.16057751    -0.80000
N181        N  0.96715238  0.13821679  0.14152997    -0.36800
N182        N  0.03792231  0.13935776  0.13806849    -0.57400
N183        N  0.03780595  0.06889265  0.12631862    -0.36800
N184        N  0.96712441  0.06748245  0.13588496    -0.57400
C185        C  0.97327631  0.16932081  0.15339819     0.26800
C186        C  0.93611299  0.13153022  0.15355412     0.26800
C187        C  0.06975629  0.07434561  0.13459417     0.26800
C188        C  0.03247762  0.03659976  0.13182712     0.26800
C189        C  0.03198756  0.17155442  0.13303010     0.35400
C190        C  0.06952250  0.13478756  0.12715239     0.35400
C191        C  0.93468145  0.07269659  0.13370315     0.35400
C192        C  0.97199125  0.03611958  0.12429244     0.35400
C193        C  0.94580298  0.18259490  0.17326958    -0.22100
C194        C  0.92226029  0.15876952  0.17314659    -0.22100
C195        C  0.08499566  0.04508732  0.14491851    -0.22100
C196        C  0.06150921  0.02126616  0.14304353    -0.22100
C197        C  0.06005934  0.18755933  0.11914595    -0.23200
C198        C  0.08393593  0.16428604  0.11587484    -0.23200
C199        C  0.91873960  0.04433928  0.12145510    -0.23200
C200        C  0.94241324  0.02111238  0.11553054    -0.23200
C201        C  0.00203230  0.18682178  0.14322338    -0.18500
C202        C  0.91920311  0.10240853  0.14417776    -0.18500
C203        C  0.00256269  0.02034335  0.12454256    -0.18500
C204        C  0.08593352  0.10462336  0.12994371    -0.18500
H205        H  0.94281291  0.20713876  0.18564412     0.14400
H206        H  0.89760143  0.16136947  0.18549233     0.14400
H207        H  0.11050452  0.04115650  0.15234720     0.14400
H208        H  0.06551997  0.99552825  0.14891505     0.14400
H209        H  0.06315133  0.21333367  0.11244661     0.12700
H210        H  0.10900546  0.16860375  0.10625967     0.12700
H211        H  0.89277978  0.04072029  0.11750261     0.12700
H212        H  0.93830036  0.99599413  0.10628154     0.12700
H213        H  0.98242225  0.12331421  0.12306139     0.25900
H214        H  0.02101111  0.08587435  0.11480635     0.25900
C215        C  0.67460597  0.11184200  0.13395165     0.80000
N216        N  0.65768359  0.09291898  0.16357299    -0.78300
C217        C  0.62472080  0.09382129  0.16440618     0.82400
N218        N  0.60849746  0.11340268  0.13501666    -0.78300
C219        C  0.62507472  0.13241302  0.10517133     0.82500
N220        N  0.65822704  0.13195755  0.10501249    -0.80000
C221        C  0.00776262  0.77510739  0.11474793     0.80000
N222        N  0.98699695  0.75840805  0.08750779    -0.78300
C223        C  0.98456351  0.72550065  0.09092759     0.82400
N224        N  0.00261423  0.70922907  0.12202463    -0.78300
C225        C  0.02297036  0.72553445  0.14985724     0.82500
N226        N  0.02554594  0.75845372  0.14617461    -0.80000
C227        C  0.33151392  0.11452193  0.13068631     0.80000
N228        N  0.34865127  0.09492664  0.10256591    -0.78300
C229        C  0.38167269  0.09443365  0.10391423     0.82400
N230        N  0.39770464  0.11312235  0.13415249    -0.78300
C231        C  0.38092939  0.13234203  0.16296784     0.82500
N232        N  0.34783744  0.13312879  0.16110171    -0.80000
O233        O  0.11201243  0.53347239  0.04857941    -0.73200
O234        O  0.06229769  0.48575106  0.45362316    -0.74100
O235        O  0.11265635  0.53488649  0.45056494    -0.62800
O236        O  0.06076147  0.48548388  0.04943972    -0.71200
O237        O  0.02421358  0.52532616  0.04790115    -0.70700
O238        O  0.07438887  0.57308880  0.44843930    -0.62000
O239        O  0.02506948  0.52495196  0.45163236    -0.74500
O240        O  0.07445052  0.57236681  0.04660253    -0.73300
Cu241      Cu  0.08812310  0.50746707  0.00141900     1.04600
Cu242      Cu  0.04838007  0.54949616  0.99927001     1.04300
C243        C  0.10123810  0.56096360  0.06188653     0.93000
C244        C  0.03557305  0.49734068  0.43836880     0.92200
C245        C  0.10149670  0.56168670  0.43464313     0.84300
C246        C  0.03432583  0.49814170  0.06379416     0.90600
O247        O  0.56736289  0.22670544  0.05323641    -0.73200
O248        O  0.61765260  0.17640185  0.46390463    -0.74100
O249        O  0.56881460  0.22735943  0.46022980    -0.62800
O250        O  0.61806556  0.17778146  0.05509840    -0.71200
O251        O  0.57969804  0.13961516  0.05716672    -0.70700
O252        O  0.53047935  0.18918395  0.45876737    -0.62000
O253        O  0.57819004  0.13938139  0.46238880    -0.74500
O254        O  0.53014009  0.18745314  0.05551507    -0.73300
Cu255      Cu  0.59382377  0.20258211  0.00638873     1.04600
Cu256      Cu  0.55333275  0.16121299  0.00855629     1.04300
C257        C  0.54064359  0.21507820  0.06872074     0.93000
C258        C  0.60611240  0.14948232  0.44944701     0.92200
C259        C  0.54212629  0.21622639  0.44435431     0.84300
C260        C  0.60682649  0.15101614  0.07105962     0.90600
O261        O  0.88697666  0.67039681  0.04769741    -0.73200
O262        O  0.93945172  0.71936566  0.45274994    -0.74100
O263        O  0.88782516  0.67144050  0.45405233    -0.62800
O264        O  0.93789321  0.71892492  0.04395098    -0.71200
O265        O  0.97449039  0.67912203  0.04682374    -0.70700
O266        O  0.92523592  0.63241819  0.45512590    -0.62000
O267        O  0.97576314  0.67930468  0.45348739    -0.74500
O268        O  0.92471498  0.63166806  0.05011631    -0.73300
Cu269      Cu  0.91223369  0.69736235  0.50105941     1.04600
Cu270      Cu  0.95101039  0.65267815  0.00090590     1.04300
C271        C  0.89778270  0.64354842  0.06385432     0.93000
C272        C  0.96585176  0.70671507  0.43818152     0.92200
C273        C  0.89839624  0.64399817  0.44021469     0.84300
C274        C  0.96451755  0.70706168  0.05925892     0.90600
O275        O  0.39004113  0.04592847  0.46178725    -0.73200
O276        O  0.43753043  0.99828175  0.06017075    -0.74100
O277        O  0.38826610  0.04791787  0.05779386    -0.62800
O278        O  0.43922996  0.99611621  0.46238206    -0.71200
O279        O  0.47704854  0.03484518  0.46383549    -0.70700
O280        O  0.42734904  0.08540347  0.05705611    -0.62000
O281        O  0.47580855  0.03656372  0.05832403    -0.74500
O282        O  0.42889230  0.08364550  0.46309511    -0.73300
Cu283      Cu  0.41146250  0.02086427  0.01159868     1.04600
Cu284      Cu  0.45256720  0.06169811  0.00971447     1.04300
C285        C  0.40193010  0.07297963  0.44775885     0.93000
C286        C  0.46458983  0.00979537  0.07421713     0.92200
C287        C  0.40000903  0.07486879  0.07165346     0.84300
C288        C  0.46632414  0.00787885  0.44861735     0.90600
O289        O  0.11609552  0.66671891  0.19842866    -0.73200
O290        O  0.06849783  0.71672794  0.29485424    -0.74100
O291        O  0.11619398  0.66567842  0.29390652    -0.62800
O292        O  0.06830469  0.71801864  0.19918821    -0.71200
O293        O  0.02926513  0.68051418  0.19925518    -0.70700
O294        O  0.07633787  0.62903831  0.29410901    -0.62000
O295        O  0.02953306  0.67915904  0.29530435    -0.74500
O296        O  0.07608884  0.63026820  0.19822280    -0.73300
Cu297      Cu  0.09369373  0.69313961  0.24657952     1.04600
Cu298      Cu  0.05145275  0.65352211  0.24667044     1.04300
C299        C  0.10357146  0.64038111  0.18353533     0.93000
C300        C  0.04153442  0.70566451  0.31025644     0.92200
C301        C  0.10374049  0.63913121  0.30881369     0.84300
C302        C  0.04111131  0.70731497  0.18441292     0.90600
O303        O  0.38877894  0.17796631  0.30732195    -0.73200
O304        O  0.43697973  0.22714503  0.20940450    -0.74100
O305        O  0.38724562  0.17769920  0.21182854    -0.62800
O306        O  0.43826068  0.22781394  0.30463043    -0.71200
O307        O  0.47593901  0.18901578  0.30490084    -0.70700
O308        O  0.42602761  0.14001312  0.21133832    -0.62000
O309        O  0.47466916  0.18835326  0.20923480    -0.74500
O310        O  0.42753444  0.14024894  0.30715347    -0.73300
Cu311      Cu  0.41139613  0.20402925  0.25833119     1.04600
Cu312      Cu  0.45230603  0.16310566  0.25817278     1.04300
C313        C  0.40065301  0.15119254  0.32234910     0.93000
C314        C  0.46364722  0.21542770  0.19431237     0.92200
C315        C  0.39879216  0.15096912  0.19696419     0.84300
C316        C  0.46530188  0.21631787  0.31898847     0.90600
O317        O  0.92302521  0.57660005  0.30165929    -0.73200
O318        O  0.96944624  0.52848818  0.20453745    -0.74100
O319        O  0.92233048  0.57793265  0.20582657    -0.62800
O320        O  0.96986944  0.52638572  0.30017877    -0.71200
O321        O  0.93095605  0.48873137  0.29996265    -0.70700
O322        O  0.88266194  0.54106297  0.20600639    -0.62000
O323        O  0.93071309  0.49061693  0.20496947    -0.74500
O324        O  0.88308049  0.54005475  0.30135977    -0.73300
Cu325      Cu  0.94749250  0.55362959  0.25312237     1.04600
Cu326      Cu  0.90540100  0.51379210  0.25310220     1.04300
C327        C  0.89562465  0.56636033  0.31634562     0.93000
C328        C  0.95768047  0.50184573  0.18987750     0.92200
C329        C  0.89500237  0.56762388  0.19108887     0.84300
C330        C  0.95829445  0.49926523  0.31435923     0.90600
O331        O  0.57985766  0.08573562  0.21309548    -0.73200
O332        O  0.53261911  0.03654470  0.30976873    -0.74100
O333        O  0.58097529  0.08502259  0.30901855    -0.62800
O334        O  0.53134826  0.03706239  0.21404236    -0.71200
O335        O  0.56897841  0.99822200  0.21368189    -0.70700
O336        O  0.61957126  0.04715279  0.30824200    -0.62000
O337        O  0.57034654  0.99776882  0.30874216    -0.74500
O338        O  0.61849962  0.04787233  0.21279902    -0.73300
Cu339      Cu  0.55491898  0.06241228  0.26145995     1.04600
Cu340      Cu  0.59576695  0.02140386  0.26075949     1.04300
C341        C  0.60679099  0.07477792  0.19810329     0.93000
C342        C  0.54377912  0.00936619  0.32415264     0.92200
C343        C  0.60797657  0.07370709  0.32368492     0.84300
C344        C  0.54194803  0.00987918  0.19949080     0.90600
C345        C  0.17382512  0.10692379  0.08933172    -0.11600
C346        C  0.19071806  0.10662578  0.13051577     0.14900
C347        C  0.17308773  0.10474638  0.17135459     0.01800
C348        C  0.13901548  0.10441783  0.17020013    -0.16000
C349        C  0.12211540  0.10469289  0.12903084    -0.10800
C350        C  0.13977355  0.10534335  0.08814790     0.08600
C351        C  0.22668938  0.10866424  0.12981429     0.09600
S352        S  0.19263500  0.10268013  0.22583763    -0.25100
H353        H  0.12550754  0.10353024  0.20160761     0.19900
S354        S  0.12020406  0.10490691  0.03365084    -0.30800
H355        H  0.18731679  0.10814678  0.05793251     0.10200
C356        C  0.24585903  0.08115047  0.12054594     0.03400
C357        C  0.27988905  0.08400778  0.12038148    -0.13100
C358        C  0.29533899  0.11386015  0.12947947    -0.08800
C359        C  0.27582074  0.14160041  0.13793147     0.06800
C360        C  0.24182090  0.13857361  0.13849386    -0.13800
S361        S  0.22691681  0.04212613  0.11060561    -0.30800
H362        H  0.29456880  0.06264724  0.11405171     0.11100
S363        S  0.29244889  0.18175493  0.14622870    -0.27900
H364        H  0.22696599  0.15981292  0.14509450     0.08300
H365        H  0.09394411  0.08492477  0.04654589     0.26700
H366        H  0.25585685  0.02409052  0.10651354     0.21500
H367        H  0.31707358  0.17849803  0.11357669     0.26800
H368        H  0.22042779  0.08567873  0.21159255     0.15700
C369        C  0.00571981  0.93488824  0.07603336    -0.11600
C370        C  0.00586230  0.91598055  0.11575864     0.14900
C371        C  0.00497644  0.93156937  0.15804554     0.01800
C372        C  0.00356152  0.96551807  0.15967249    -0.16000
C373        C  0.00339853  0.98441696  0.12007185    -0.10800
C374        C  0.00482922  0.96894867  0.07770020     0.08600
C375        C  0.00706183  0.88010174  0.11219371     0.09600
S376        S  0.00591432  0.90970237  0.21112949    -0.25100
H377        H  0.00278842  0.97743187  0.19213023     0.19900
S378        S  0.00517002  0.99101087  0.02470713    -0.30800
H379        H  0.00661412  0.92298363  0.04354570     0.10200
C380        C  0.97982910  0.86224466  0.09754076     0.03400
C381        C  0.98121158  0.82813274  0.09737611    -0.13100
C382        C  0.00930090  0.81128844  0.11165393    -0.08800
C383        C  0.03714072  0.82958178  0.12430420     0.06800
C384        C  0.03552223  0.86363507  0.12494114    -0.13800
S385        S  0.94260993  0.88284053  0.08165333    -0.30800
H386        H  0.95979227  0.81452730  0.08759420     0.11100
S387        S  0.07579201  0.81140817  0.13850440    -0.27900
H388        H  0.05665725  0.87749851  0.13541689     0.08300
H389        H  0.01849486  0.02021326  0.04071372     0.26700
H390        H  0.92539427  0.85497525  0.06799646     0.21500
H391        H  0.07406125  0.78758560  0.10473219     0.26800
H392        H  0.98946663  0.88178599  0.19614269     0.15700
C393        C  0.76168682  0.08171101  0.14403713    -0.11600
C394        C  0.77895383  0.11115911  0.14425614     0.14900
C395        C  0.76188187  0.14078747  0.13872085     0.01800
C396        C  0.72796904  0.14030709  0.13358322    -0.16000
C397        C  0.71058402  0.11084572  0.13428952    -0.10800
C398        C  0.72788671  0.08117836  0.13856565     0.08600
C399        C  0.81493377  0.10974848  0.14579189     0.09600
S400        S  0.78190649  0.17991620  0.13860244    -0.25100
H401        H  0.71495923  0.16317328  0.13044531     0.19900
S402        S  0.70862870  0.04178713  0.13471390    -0.30800
H403        H  0.77482254  0.05888047  0.14676222     0.10200
C404        C  0.83183575  0.09878845  0.18452684     0.03400
C405        C  0.86586587  0.09573649  0.18295268    -0.13100
C406        C  0.88315279  0.10382439  0.14358164    -0.08800
C407        C  0.86620551  0.11550263  0.10527585     0.06800
C408        C  0.83235614  0.11831751  0.10682396    -0.13800
S409        S  0.81023743  0.09009695  0.23636833    -0.30800
H410        H  0.87919063  0.08762934  0.21253094     0.11100
S411        S  0.88645192  0.12818246  0.05400152    -0.27900
H412        H  0.81937710  0.12710701  0.07731857     0.08300
H413        H  0.68494055  0.05162124  0.10308437     0.26700
H414        H  0.83779157  0.08282968  0.26283567     0.21500
H415        H  0.91224245  0.10580738  0.05666557     0.26800
H416        H  0.80760963  0.17077304  0.16741396     0.15700
C417        C  0.97943298  0.27435167  0.11394072    -0.11600
C418        C  0.99927738  0.29167653  0.14388708     0.14900
C419        C  0.01911900  0.27436265  0.17484927     0.01800
C420        C  0.01896098  0.24029669  0.17465961    -0.16000
C421        C  0.00043450  0.22302152  0.14302734    -0.10800
C422        C  0.98038011  0.24038794  0.11234713     0.08600
C423        C  0.99902911  0.32770678  0.14142182     0.09600
S424        S  0.04580008  0.29414694  0.21451992    -0.25100
H425        H  0.03405322  0.22708841  0.19861100     0.19900
S426        S  0.95573313  0.22083435  0.06999173    -0.30800
H427        H  0.96382100  0.28751610  0.09058652     0.10200
C428        C  0.00970067  0.34447517  0.10241207     0.03400
C429        C  0.00939702  0.37857954  0.10156092    -0.13100
C430        C  0.99872202  0.39658868  0.13890392    -0.08800
C431        C  0.98857242  0.37945153  0.17840435     0.06800
C432        C  0.98818736  0.34539064  0.17868488    -0.13800
S433        S  0.02464161  0.32261510  0.05392843    -0.30800
H434        H  0.01739390  0.39122511  0.07133063     0.11100
S435        S  0.97739535  0.39889744  0.23052278    -0.27900
H436        H  0.98006105  0.33246862  0.20867973     0.08300
H437        H  0.97680600  0.19440539  0.06289486     0.26700
H438        H  0.02482119  0.34926110  0.02372747     0.21500
H439        H  0.00362952  0.42098613  0.22944124     0.26800
H440        H  0.05349043  0.32088797  0.18650863     0.15700
C441        C  0.83286584  0.11412261  0.36721137    -0.11600
C442        C  0.81588666  0.09974360  0.40334682     0.14900
C443        C  0.83360075  0.08435121  0.43849191     0.01800
C444        C  0.86773877  0.08397513  0.43678710    -0.16000
C445        C  0.88477368  0.09885176  0.40106290    -0.10800
C446        C  0.86696835  0.11358760  0.36544481     0.08600
C447        C  0.77978008  0.10095343  0.40288880     0.09600
S448        S  0.81450334  0.06480085  0.48655313    -0.25100
H449        H  0.88123838  0.07247300  0.46402402     0.19900
S450        S  0.88629065  0.13200499  0.31682369    -0.30800
H451        H  0.81938128  0.12563744  0.33995790     0.10200
C452        C  0.76279246  0.12843814  0.41838872     0.03400
C453        C  0.72859936  0.12895067  0.41650568    -0.13100
C454        C  0.71076071  0.10222507  0.40010489    -0.08800
C455        C  0.72812830  0.07395008  0.38686977     0.06800
C456        C  0.76226834  0.07398949  0.38740964    -0.13800
S457        S  0.78476941  0.16275487  0.44097670    -0.30800
H458        H  0.71578501  0.15059089  0.42712140     0.11100
S459        S  0.70858043  0.03629721  0.37151896    -0.27900
H460        H  0.77535029  0.05250181  0.37663394     0.08300
H461        H  0.91343100  0.11117062  0.31632865     0.26700
H462        H  0.75737474  0.17977992  0.45670382     0.21500
H463        H  0.68455382  0.03825276  0.40525698     0.26800
H464        H  0.78381237  0.07964319  0.48343536     0.15700
C465        C  0.01520164  0.27583684  0.41727053    -0.11600
C466        C  0.00061816  0.28911923  0.37840785     0.14900
C467        C  0.98706585  0.26794671  0.34601302     0.01800
C468        C  0.98692940  0.23433345  0.35438226    -0.16000
C469        C  0.00101306  0.22114454  0.39364714    -0.10800
C470        C  0.01560856  0.24218698  0.42527672     0.08600
C471        C  0.99927439  0.32512440  0.37374882     0.09600
S472        S  0.97035292  0.28200609  0.29297085    -0.25100
H473        H  0.97654104  0.21816201  0.32947296     0.19900
S474        S  0.03555082  0.22785466  0.47604017    -0.30800
H475        H  0.02607034  0.29191480  0.44184539     0.10200
C476        C  0.96978486  0.34236496  0.37850645     0.03400
C477        C  0.97001705  0.37658565  0.37654580    -0.13100
C478        C  0.99921303  0.39397241  0.37076955    -0.08800
C479        C  0.02855469  0.37656791  0.36477639     0.06800
C480        C  0.02833358  0.34245881  0.36688158    -0.13800
S481        S  0.93212893  0.32088394  0.38940229    -0.30800
H482        H  0.94753898  0.38994181  0.38098295     0.11100
S483        S  0.06683535  0.39640973  0.35297820    -0.27900
H484        H  0.05098355  0.32926000  0.36289020     0.08300
H485        H  0.01937186  0.19780781  0.47977938     0.26700
H486        H  0.91255646  0.34859126  0.39549581     0.21500
H487        H  0.05333806  0.42252866  0.32827003     0.26800
H488        H  0.98845120  0.31101200  0.29012356     0.15700
C489        C  0.17672968  0.09348205  0.35864369    -0.11600
C490        C  0.19356943  0.10728591  0.39496242     0.14900
C491        C  0.17591200  0.12078466  0.43110676     0.01800
C492        C  0.14187528  0.12049086  0.42993668    -0.16000
C493        C  0.12500882  0.10612770  0.39405869    -0.10800
C494        C  0.14269050  0.09299179  0.35760975     0.08600
C495        C  0.22949831  0.10856228  0.39322413     0.09600
S496        S  0.19543917  0.13812048  0.47987633    -0.25100
H497        H  0.12836732  0.13087298  0.45772241     0.19900
S498        S  0.12324051  0.07573618  0.30873372    -0.30800
H499        H  0.19025519  0.08346296  0.33061479     0.10200
C500        C  0.24841111  0.08016646  0.39804308     0.03400
C501        C  0.28239613  0.08250801  0.39603329    -0.13100
C502        C  0.29795812  0.11274450  0.38996757    -0.08800
C503        C  0.27884755  0.14129384  0.38633208     0.06800
C504        C  0.24487889  0.13879742  0.38722700    -0.13800
S505        S  0.22935168  0.04108081  0.40806183    -0.30800
H506        H  0.29695091  0.06060898  0.39896914     0.11100
S507        S  0.29608514  0.18165471  0.38309261    -0.27900
H508        H  0.23025790  0.16067952  0.38422840     0.08300
H509        H  0.09590518  0.09631820  0.30926355     0.26700
H510        H  0.25813740  0.02368173  0.41728515     0.21500
H511        H  0.32173624  0.17512387  0.41335033     0.26800
H512        H  0.22199212  0.11649729  0.48051153     0.15700
C513        C  0.03996863  0.86089056  0.37707050    -0.11600
C514        C  0.01089958  0.87814532  0.38329476     0.14900
C515        C  0.98131246  0.86095371  0.38801342     0.01800
C516        C  0.98139793  0.82695434  0.38587237    -0.16000
C517        C  0.01043531  0.80946778  0.37986605    -0.10800
C518        C  0.04015896  0.82678739  0.37603294     0.08600
C519        C  0.01217285  0.91399593  0.38581118     0.09600
S520        S  0.94252086  0.88076339  0.39615355    -0.25100
H521        H  0.95846917  0.81400615  0.38884454     0.19900
S522        S  0.07922474  0.80698474  0.37246593    -0.30800
H523        H  0.06275859  0.87409811  0.37417058     0.10200
C524        C  0.01823284  0.92963198  0.42705201     0.03400
C525        C  0.01658336  0.96363906  0.42894579    -0.13100
C526        C  0.00997745  0.98240832  0.39021568    -0.08800
C527        C  0.00587674  0.96668198  0.34829677     0.06800
C528        C  0.00626833  0.93260921  0.34678168    -0.13800
S529        S  0.02729171  0.90619533  0.47739729    -0.30800
H530        H  0.02100410  0.97588257  0.46048906     0.11100
S531        S  0.99997036  0.98853726  0.29579106    -0.27900
H532        H  0.00209551  0.92047349  0.31498632     0.08300
H533        H  0.07126713  0.78160048  0.40274484     0.26700
H534        H  0.03436890  0.93282207  0.50530726     0.21500
H535        H  0.01657813  0.01702523  0.30822259     0.26800
H536        H  0.95408357  0.90912123  0.41688587     0.15700
C537        C  0.74024887  0.61480212  0.41582220    -0.11600
C538        C  0.72377412  0.60794292  0.37552226     0.14900
C539        C  0.74218497  0.59981639  0.33689037     0.01800
C540        C  0.77626685  0.59964486  0.33929271    -0.16000
C541        C  0.79280241  0.60619745  0.37986346    -0.10800
C542        C  0.77419337  0.61290955  0.41892164     0.08600
C543        C  0.68759316  0.61031409  0.37459051     0.09600
S544        S  0.72384557  0.58894403  0.28369279    -0.25100
H545        H  0.78997577  0.59414852  0.30906511     0.19900
S546        S  0.79171511  0.61726639  0.47437044    -0.30800
H547        H  0.72642712  0.62101059  0.44554109     0.10200
C548        C  0.66774565  0.59139329  0.40372427     0.03400
C549        C  0.63377309  0.59418490  0.40084744    -0.13100
C550        C  0.61902442  0.61463508  0.36855730    -0.08800
C551        C  0.63888601  0.63362334  0.33958945     0.06800
C552        C  0.67278927  0.63191247  0.34379516    -0.13800
S553        S  0.68525412  0.56217190  0.44275905    -0.30800
H554        H  0.61844492  0.57961245  0.42289060     0.11100
S555        S  0.62264011  0.65962545  0.29561836    -0.27900
H556        H  0.68784920  0.64680915  0.32177838     0.08300
H557        H  0.81414703  0.59167468  0.46911819     0.26700
H558        H  0.65636623  0.55479938  0.46626681     0.21500
H559        H  0.59521042  0.64032472  0.28618742     0.26800
H560        H  0.69585658  0.57433577  0.30231802     0.15700
C561        C  0.52179360  0.44351350  0.39884747    -0.11600
C562        C  0.50571921  0.42520730  0.36578284     0.14900
C563        C  0.48798303  0.44164645  0.33157059     0.01800
C564        C  0.48657210  0.47570173  0.33137386    -0.16000
C565        C  0.50277297  0.49395413  0.36429077    -0.10800
C566        C  0.52053106  0.47757921  0.39855363     0.08600
C567        C  0.50623942  0.38909655  0.36956473     0.09600
S568        S  0.46687745  0.42069318  0.28699984    -0.25100
H569        H  0.47310706  0.48816883  0.30491125     0.19900
S570        S  0.54202727  0.49856988  0.44287754    -0.30800
H571        H  0.53500223  0.43108806  0.42558738     0.10200
C572        C  0.53542538  0.37114496  0.36596488     0.03400
C573        C  0.53460157  0.33701750  0.37058694    -0.13100
C574        C  0.50512703  0.32044726  0.37809457    -0.08800
C575        C  0.47606353  0.33859599  0.38225576     0.06800
C576        C  0.47693021  0.37254719  0.37789063    -0.13800
S577        S  0.57343059  0.39151869  0.35337494    -0.30800
H578        H  0.55680449  0.32306519  0.36707142     0.11100
S579        S  0.43724137  0.31998938  0.39454027    -0.27900
H580        H  0.45456076  0.38628126  0.38145362     0.08300
H581        H  0.52160792  0.52599491  0.44415837     0.26700
H582        H  0.59298474  0.36342065  0.35260444     0.21500
H583        H  0.44988472  0.29504672  0.42228097     0.26800
H584        H  0.48844088  0.39417413  0.28482042     0.15700
C585        C  0.25998080  0.59326622  0.41284344    -0.11600
C586        C  0.27546117  0.61230371  0.37976664     0.14900
C587        C  0.25643004  0.62997413  0.34853943     0.01800
C588        C  0.22261170  0.62641565  0.34889382    -0.16000
C589        C  0.20659783  0.60674398  0.38129402    -0.10800
C590        C  0.22594410  0.59099889  0.41488631     0.08600
C591        C  0.31142138  0.61187743  0.37682480     0.09600
S592        S  0.27377000  0.65782568  0.30767229    -0.25100
H593        H  0.20880426  0.63951707  0.32343229     0.19900
S594        S  0.20949694  0.56844465  0.46208650    -0.30800
H595        H  0.27461060  0.58020766  0.43751474     0.10200
C596        C  0.33112048  0.62695291  0.40954372     0.03400
C597        C  0.36505768  0.62651024  0.40444168    -0.13100
C598        C  0.37963164  0.61158872  0.36707986    -0.08800
C599        C  0.35979133  0.59674384  0.33417603     0.06800
C600        C  0.32598267  0.59672052  0.33969716    -0.13800
S601        S  0.31305266  0.64777516  0.45676894    -0.30800
H602        H  0.38043648  0.63794993  0.42943489     0.11100
S603        S  0.37604313  0.57793101  0.28421947    -0.27900
H604        H  0.31078843  0.58531738  0.31440642     0.08300
H605        H  0.18857086  0.59384454  0.47503381     0.26700
H606        H  0.34234950  0.65858770  0.47625300     0.21500
H607        H  0.40287765  0.59896931  0.27939535     0.26800
H608        H  0.30140250  0.66615914  0.33313921     0.15700
C609        C  0.53088188  0.85212064  0.37730295    -0.11600
C610        C  0.50032137  0.83693127  0.37457653     0.14900
C611        C  0.47184183  0.85610198  0.37711198     0.01800
C612        C  0.47455583  0.88977206  0.38265891    -0.16000
C613        C  0.50509500  0.90505596  0.38455214    -0.10800
C614        C  0.53361269  0.88586278  0.38214346     0.08600
C615        C  0.49901422  0.80096211  0.37180669     0.09600
S616        S  0.43137422  0.83929628  0.37242876    -0.25100
H617        H  0.45257181  0.90432850  0.38396617     0.19900
S618        S  0.57409758  0.90257648  0.38687714    -0.30800
H619        H  0.55280458  0.83744821  0.37640773     0.10200
C620        C  0.51231283  0.78418901  0.33476654     0.03400
C621        C  0.51131449  0.75008500  0.33440362    -0.13100
C622        C  0.49730794  0.73246478  0.37022179    -0.08800
C623        C  0.48385693  0.74924767  0.40717596     0.06800
C624        C  0.48486199  0.78327268  0.40752674    -0.13800
S625        S  0.53003023  0.80608853  0.28759141    -0.30800
H626        H  0.52143831  0.73694102  0.30616855     0.11100
S627        S  0.46498540  0.72881281  0.45463854    -0.27900
H628        H  0.47486487  0.79611864  0.43614914     0.08300
H629        H  0.56557992  0.92714306  0.41745767     0.26700
H630        H  0.53697153  0.77872859  0.26102122     0.21500
H631        H  0.48354222  0.70012632  0.45273429     0.26800
H632        H  0.43988209  0.81349050  0.34388150     0.15700
C633        C  0.32918089  0.59355648  0.08080805    -0.11600
C634        C  0.31118228  0.60734361  0.11606284     0.14900
C635        C  0.32801239  0.62266395  0.15178786     0.01800
C636        C  0.36201271  0.62512692  0.15047305    -0.16000
C637        C  0.37997100  0.61167815  0.11500922    -0.10800
C638        C  0.36326573  0.59563286  0.07985553     0.08600
C639        C  0.27500226  0.60570331  0.11453709     0.09600
S640        S  0.30773591  0.63874715  0.20069558    -0.25100
H641        H  0.37471281  0.63675268  0.17808234     0.19900
S642        S  0.38415213  0.57710474  0.03319897    -0.30800
H643        H  0.31654124  0.58153689  0.05347248     0.10200
C644        C  0.25583785  0.63408021  0.11030158     0.03400
C645        C  0.22177891  0.63168453  0.11271253    -0.13100
C646        C  0.20628906  0.60142918  0.11836262    -0.08800
C647        C  0.22549919  0.57291585  0.12144777     0.06800
C648        C  0.25953634  0.57533180  0.11906271    -0.13800
S649        S  0.27463688  0.67328502  0.10032809    -0.30800
H650        H  0.20704648  0.65343648  0.10936252     0.11100
S651        S  0.20822157  0.53303643  0.13090527    -0.27900
H652        H  0.27415255  0.55346987  0.12235077     0.08300
H653        H  0.41000514  0.59957938  0.03149217     0.26700
H654        H  0.24648959  0.69208663  0.10727172     0.21500
H655        H  0.18298474  0.54367118  0.15927069     0.26800
H656        H  0.28135005  0.61690718  0.20042984     0.15700
C657        C  0.46985816  0.85427531  0.13536405    -0.11600
C658        C  0.49894800  0.83697570  0.14205659     0.14900
C659        C  0.52793089  0.85445999  0.15069923     0.01800
C660        C  0.52737253  0.88857565  0.15098249    -0.16000
C661        C  0.49836728  0.90598634  0.14372323    -0.10800
C662        C  0.46908591  0.88836230  0.13711509     0.08600
C663        C  0.49853575  0.80089110  0.13822410     0.09600
S664        S  0.56646810  0.83478551  0.16147183    -0.25100
H665        H  0.54996202  0.90164703  0.15641752     0.19900
S666        S  0.42974593  0.90761395  0.13271570    -0.30800
H667        H  0.44746668  0.84104269  0.12913978     0.10200
C668        C  0.48149234  0.78099850  0.16933311     0.03400
C669        C  0.48217902  0.74701319  0.16450467    -0.13100
C670        C  0.49941935  0.73238129  0.12911412    -0.08800
C671        C  0.51633705  0.75240547  0.09782191     0.06800
C672        C  0.51571098  0.78629673  0.10280902    -0.13800
S673        S  0.45942668  0.79872040  0.21578484    -0.30800
H674        H  0.46934043  0.73162224  0.18846625     0.11100
S675        S  0.53945657  0.73654971  0.05107527    -0.27900
H676        H  0.52868862  0.80152468  0.07874167     0.08300
H677        H  0.43655976  0.93185900  0.16465610     0.26700
H678        H  0.45257741  0.76933810  0.23869934     0.21500
H679        H  0.52306293  0.70668240  0.04727865     0.26800
H680        H  0.55353665  0.80628170  0.18107737     0.15700
C681        C  0.73984260  0.58025585  0.12428332    -0.11600
C682        C  0.72419667  0.61008726  0.13164762     0.14900
C683        C  0.74312582  0.63859469  0.13674762     0.01800
C684        C  0.77704647  0.63682856  0.13282347    -0.16000
C685        C  0.79269784  0.60701881  0.12541682    -0.10800
C686        C  0.77379652  0.57846527  0.12072356     0.08600
C687        C  0.68813305  0.61097132  0.13093452     0.09600
S688        S  0.72553194  0.67782197  0.14876998    -0.25100
H689        H  0.79143813  0.65875044  0.13697408     0.19900
S690        S  0.79141770  0.53942647  0.10789315    -0.30800
H691        H  0.72540756  0.55839044  0.11987147     0.10200
C692        C  0.67107412  0.62495097  0.09427263     0.03400
C693        C  0.63695567  0.62552676  0.09491653    -0.13100
C694        C  0.61949246  0.61205611  0.13121831    -0.08800
C695        C  0.63659434  0.59760565  0.16769947     0.06800
C696        C  0.67070092  0.59703131  0.16696692    -0.13800
S697        S  0.69269502  0.64121273  0.04602148    -0.30800
H698        H  0.62368458  0.63609384  0.06679129     0.11100
S699        S  0.61644943  0.57910521  0.21566306    -0.27900
H700        H  0.68378738  0.58589167  0.19484867     0.08300
H701        H  0.81708716  0.55194854  0.08149361     0.26700
H702        H  0.66520300  0.64707961  0.01879162     0.21500
H703        H  0.58805874  0.59813980  0.21375929     0.26800
H704        H  0.69795915  0.66591824  0.17170680     0.15700
C705        C  0.53142998  0.37196248  0.12417802    -0.11600
C706        C  0.50261471  0.38834602  0.13512019     0.14900
C707        C  0.47473416  0.37017261  0.14716672     0.01800
C708        C  0.47588625  0.33610274  0.14618753    -0.16000
C709        C  0.50458120  0.31944304  0.13444861    -0.10800
C710        C  0.53295438  0.33788983  0.12465783     0.08600
C711        C  0.50205273  0.42433444  0.13202947     0.09600
S712        S  0.43696761  0.38902514  0.16383930    -0.25100
H713        H  0.45400872  0.32251529  0.15441639     0.19900
S714        S  0.57223415  0.31979133  0.11473892    -0.30800
H715        H  0.55303640  0.38590697  0.11564535     0.10200
C716        C  0.51824382  0.44376790  0.16394274     0.03400
C717        C  0.51707261  0.47774831  0.15952373    -0.13100
C718        C  0.50024887  0.49275443  0.12365549    -0.08800
C719        C  0.48387597  0.47315895  0.09177145     0.06800
C720        C  0.48488450  0.43922408  0.09649343    -0.13800
S721        S  0.53976143  0.42536798  0.21085240    -0.30800
H722        H  0.52929804  0.49285243  0.18407963     0.11100
S723        S  0.46110194  0.48958761  0.04460925    -0.27900
H724        H  0.47238427  0.42420927  0.07204976     0.08300
H725        H  0.56877518  0.29581247  0.14866092     0.26700
H726        H  0.54672880  0.45445202  0.23371887     0.21500
H727        H  0.47753489  0.51950908  0.04113446     0.26800
H728        H  0.45093305  0.41715289  0.18244778     0.15700
C729        C  0.50048252  0.28323208  0.63261392     0.80000
N730        N  0.51982392  0.26673092  0.60340785    -0.78300
C731        C  0.51914839  0.23370278  0.60244045     0.82400
N732        N  0.49930628  0.21711415  0.63114701    -0.78300
C733        C  0.47989633  0.23332383  0.66038949     0.82500
N734        N  0.48023964  0.26639877  0.66073649    -0.80000
N735        N  0.53656219  0.64492516  0.60271182    -0.36800
N736        N  0.53481653  0.57427685  0.60246707    -0.57400
N737        N  0.46402088  0.57592320  0.59194799    -0.36800
N738        N  0.46550443  0.64650724  0.59906326    -0.57400
C739        C  0.56743780  0.63792860  0.61516127     0.26800
C740        C  0.53078738  0.67611623  0.61431769     0.26800
C741        C  0.46883799  0.54418259  0.60247865     0.26800
C742        C  0.43220460  0.58247460  0.59932434     0.26800
C743        C  0.56726359  0.57878427  0.59816071     0.35400
C744        C  0.52913382  0.54256691  0.59375534     0.35400
C745        C  0.47202589  0.67858139  0.59389359     0.35400
C746        C  0.43392069  0.64244290  0.58753563     0.35400
C747        C  0.58164454  0.66511784  0.63448645    -0.22100
C748        C  0.55844851  0.68925188  0.63404050    -0.22100
C749        C  0.43962022  0.53025843  0.61616801    -0.22100
C750        C  0.41648264  0.55443486  0.61413055    -0.22100
C751        C  0.58232826  0.54977188  0.58697181    -0.23200
C752        C  0.55812605  0.52676279  0.58424772    -0.23200
C753        C  0.44442064  0.69502443  0.57939146    -0.23200
C754        C  0.42025200  0.67208448  0.57528943    -0.23200
C755        C  0.58363779  0.60818480  0.60754874    -0.16100
C756        C  0.50186675  0.69355518  0.60524790    -0.18500
C757        C  0.41671404  0.61271760  0.59114390    -0.18500
C758        C  0.49856702  0.52711068  0.59828189    -0.18500
H759        H  0.60619772  0.66734443  0.64744064     0.14400
H760        H  0.56168170  0.71376328  0.64645272     0.14400
H761        H  0.43536199  0.50523493  0.62639579     0.14400
H762        H  0.39097445  0.55166728  0.62254616     0.14400
H763        H  0.60809177  0.54552418  0.58205763     0.12700
H764        H  0.56149868  0.50123179  0.57673861     0.12700
H765        H  0.44191717  0.72088158  0.57281469     0.12700
H766        H  0.39538604  0.67672874  0.56495107     0.12700
H767        H  0.52090147  0.62984596  0.58478432     0.25900
H768        H  0.48118094  0.59184730  0.57817466     0.25900
C769        C  0.82832523  0.60632470  0.62162193     0.80000
N770        N  0.84622033  0.62672493  0.59513035    -0.78300
C771        C  0.87919983  0.62639753  0.59752860     0.82400
N772        N  0.89423370  0.60620892  0.62747078    -0.78300
C773        C  0.87653850  0.58620175  0.65481803     0.82500
N774        N  0.84351892  0.58593711  0.65140103    -0.80000
C775        C  0.50108382  0.93732658  0.63649599     0.80000
N776        N  0.52081318  0.95355680  0.66568812    -0.78300
C777        C  0.52135516  0.98667227  0.66560566     0.82400
N778        N  0.50264779  0.00350330  0.63581441    -0.78300
C779        C  0.48334958  0.98757149  0.60621896     0.82500
N780        N  0.48262133  0.95455673  0.60659603    -0.80000
C781        C  0.17205583  0.60519610  0.61188861     0.80000
N782        N  0.15702400  0.62372588  0.64359534    -0.78300
C783        C  0.12414722  0.62188422  0.64896059     0.82400
N784        N  0.10636416  0.60235460  0.62158234    -0.78300
C785        C  0.12119441  0.58419524  0.58964324     0.82500
N786        N  0.15403809  0.58538737  0.58518861    -0.80000
C787        C  0.50194500  0.93891879  0.89028504     0.80000
N788        N  0.48213540  0.95624936  0.91781819    -0.78300
C789        C  0.48260703  0.98929384  0.91644372     0.82400
N790        N  0.50223211  0.00497150  0.88655115    -0.78300
C791        C  0.52165381  0.98788276  0.85832687     0.82500
N792        N  0.52181294  0.95479892  0.86058015    -0.80000
N793        N  0.46631613  0.57409436  0.90447980    -0.36800
N794        N  0.46539587  0.64506444  0.91135294    -0.57400
N795        N  0.53621018  0.64566512  0.90933137    -0.36800
N796        N  0.53691615  0.57452677  0.90930817    -0.57400
C797        C  0.43467097  0.57947745  0.91439328     0.26800
C798        C  0.47249890  0.54233640  0.91345596     0.26800
C799        C  0.52984243  0.67683385  0.92071257     0.26800
C800        C  0.56758905  0.63953597  0.92034666     0.26800
C801        C  0.43381025  0.63940140  0.90125267     0.35400
C802        C  0.47063996  0.67714712  0.90354907     0.35400
C803        C  0.53178635  0.54315240  0.89787474     0.35400
C804        C  0.56854275  0.58086607  0.90046212     0.35400
C805        C  0.42047364  0.55072522  0.92956752    -0.22100
C806        C  0.44438620  0.52727241  0.92904487    -0.22100
C807        C  0.55759651  0.69081337  0.93894745    -0.22100
C808        C  0.58142371  0.66718985  0.93890581    -0.22100
C809        C  0.41884743  0.66806901  0.88742860    -0.23200
C810        C  0.44220842  0.69199615  0.88885872    -0.23200
C811        C  0.56027733  0.52938618  0.88192075    -0.23200
C812        C  0.58361676  0.55334113  0.88348524    -0.23200
C813        C  0.41785688  0.60909539  0.90694680    -0.18500
C814        C  0.50227750  0.52626021  0.90504946    -0.18500
C815        C  0.58449223  0.61037084  0.91092507    -0.18500
C816        C  0.50029038  0.69347625  0.91217770    -0.18500
H817        H  0.39534596  0.54689591  0.93925915     0.14400
H818        H  0.44129805  0.50191486  0.93842982     0.14400
H819        H  0.56045772  0.71556038  0.95060783     0.14400
H820        H  0.60625457  0.67019946  0.95044283     0.14400
H821        H  0.39369958  0.67142362  0.87746724     0.12700
H822        H  0.43861285  0.71743728  0.88036166     0.12700
H823        H  0.56390711  0.50461457  0.87078920     0.12700
H824        H  0.60886263  0.55071491  0.87367140     0.12700
H825        H  0.48217184  0.59066694  0.88951190     0.25900
H826        H  0.52068423  0.63014713  0.89210315     0.25900
C827        C  0.17228478  0.60370579  0.88833063     0.80000
N828        N  0.15704213  0.62162773  0.85557362    -0.78300
C829        C  0.12461548  0.61788297  0.84780745     0.82400
N830        N  0.10717489  0.59677120  0.87371024    -0.78300
C831        C  0.12203110  0.57871692  0.90621653     0.82500
N832        N  0.15456265  0.58191050  0.91296030    -0.80000
C833        C  0.49797450  0.28078804  0.88720627     0.80000
N834        N  0.51870506  0.26361981  0.91400651    -0.78300
C835        C  0.51995264  0.23070768  0.91173620     0.82400
N836        N  0.50091351  0.21484947  0.88157393    -0.78300
C837        C  0.48056898  0.23180388  0.85381143     0.82500
N838        N  0.47886223  0.26482131  0.85699439    -0.80000
C839        C  0.82870204  0.59534750  0.89157211     0.80000
N840        N  0.84654265  0.61691260  0.91567037    -0.78300
C841        C  0.87901946  0.61969168  0.90936708     0.82400
N842        N  0.89389069  0.60150324  0.87757949    -0.78300
C843        C  0.87633089  0.58072196  0.85176749     0.82500
N844        N  0.84369200  0.57736369  0.85905842    -0.80000
C845        C  0.00319058  0.77004013  0.87100729     0.80000
N846        N  0.02375216  0.75297768  0.84408231    -0.78300
C847        C  0.02368308  0.71985834  0.84494110     0.82400
N848        N  0.00360166  0.70368716  0.87376322    -0.78300
C849        C  0.98347657  0.72046092  0.90134877     0.82500
N850        N  0.98313842  0.75346008  0.89959837    -0.80000
N851        N  0.03764448  0.13588536  0.87377764    -0.36800
N852        N  0.03844156  0.06468042  0.87758470    -0.57400
N853        N  0.96754131  0.06429887  0.88087421    -0.36800
N854        N  0.96688611  0.13537627  0.88341743    -0.57400
C855        C  0.06974694  0.13023920  0.88063111     0.26800
C856        C  0.03210378  0.16765462  0.88281484     0.26800
C857        C  0.97405499  0.03250960  0.88921183     0.26800
C858        C  0.93626820  0.06969987  0.89301904     0.26800
C859        C  0.07003723  0.07033434  0.86752747     0.35400
C860        C  0.03311402  0.03271393  0.86998392     0.35400
C861        C  0.97140356  0.16770195  0.87665457     0.35400
C862        C  0.93444732  0.12993244  0.88064358     0.35400
C863        C  0.08485930  0.15883882  0.89379275    -0.22100
C864        C  0.06120007  0.18249406  0.89474601    -0.22100
C865        C  0.94653464  0.01746169  0.90680172    -0.22100
C866        C  0.92263333  0.04088267  0.90895609    -0.22100
C867        C  0.08496064  0.04178825  0.85394562    -0.23200
C868        C  0.06152523  0.01796439  0.85531402    -0.23200
C869        C  0.94159423  0.18297394  0.87059755    -0.23200
C870        C  0.91820938  0.15906270  0.87306907    -0.23200
C871        C  0.08613053  0.10045861  0.87299147    -0.18500
C872        C  0.00183224  0.18394920  0.87864509    -0.18500
C873        C  0.91909202  0.09933001  0.88708003    -0.18500
C874        C  0.00345464  0.01628161  0.87857482    -0.18500
H875        H  0.11039365  0.16242590  0.90138643     0.14400
H876        H  0.06511569  0.20776622  0.90325017     0.14400
H877        H  0.94379945  0.99210690  0.91643006     0.14400
H878        H  0.89792967  0.03700299  0.92053321     0.14400
H879        H  0.11012520  0.03846619  0.84414889     0.12700
H880        H  0.06509552  0.99264598  0.84675263     0.12700
H881        H  0.93708869  0.20871443  0.86547219     0.12700
H882        H  0.89219638  0.16278366  0.87014768     0.12700
H883        H  0.02083557  0.11945463  0.86119631     0.25900
H884        H  0.98284520  0.08080598  0.86482642     0.25900
C885        C  0.33127496  0.10798926  0.88191671     0.80000
N886        N  0.34740157  0.12818554  0.85300259    -0.78300
C887        C  0.38040858  0.12955138  0.85362040     0.82400
N888        N  0.39729382  0.11110465  0.88376131    -0.78300
C889        C  0.38134380  0.09105059  0.91292404     0.82500
N890        N  0.34833847  0.08915494  0.91152439    -0.80000
C891        C  0.00030269  0.42986329  0.86970565     0.80000
N892        N  0.01846538  0.44616627  0.90063261    -0.78300
C893        C  0.01635922  0.47906861  0.90388254     0.82400
N894        N  0.99613011  0.49577536  0.87582274    -0.78300
C895        C  0.97764964  0.47979886  0.84511688     0.82500
N896        N  0.97958247  0.44683275  0.84235678    -0.80000
C897        C  0.67323574  0.10590635  0.88731183     0.80000
N898        N  0.65608956  0.08757027  0.85757468    -0.78300
C899        C  0.62315806  0.08983034  0.85535192     0.82400
N900        N  0.60720580  0.11023545  0.88351020    -0.78300
C901        C  0.62400089  0.12876952  0.91330917     0.82500
N902        N  0.65708006  0.12684965  0.91482492    -0.80000
C903        C  0.99700953  0.43361983  0.62683216     0.80000
N904        N  0.01661906  0.45060297  0.59812589    -0.78300
C905        C  0.01622137  0.48358186  0.59707341     0.82400
N906        N  0.99644708  0.49996815  0.62563614    -0.78300
C907        C  0.97683997  0.48336892  0.65474257     0.82500
N908        N  0.97676830  0.45022207  0.65476500    -0.80000
N909        N  0.96356215  0.13916501  0.61060335    -0.36800
N910        N  0.03467333  0.13951410  0.60944913    -0.57400
N911        N  0.03486870  0.06829436  0.61396268    -0.36800
N912        N  0.96397981  0.06816862  0.62167019    -0.57400
C913        C  0.96997692  0.17096996  0.61856093     0.26800
C914        C  0.93263802  0.13340106  0.62433488     0.26800
C915        C  0.06723944  0.07415125  0.61764982     0.26800
C916        C  0.02987248  0.03629892  0.62322636     0.26800
C917        C  0.02912197  0.17129587  0.59992286     0.35400
C918        C  0.06673149  0.13423311  0.60209969     0.35400
C919        C  0.93144904  0.07288473  0.61920624     0.35400
C920        C  0.96873698  0.03559214  0.62098356     0.35400
C921        C  0.94273750  0.18549928  0.63739174    -0.22100
C922        C  0.91909965  0.16186156  0.64064261    -0.22100
C923        C  0.08309310  0.04536241  0.62868591    -0.22100
C924        C  0.05966645  0.02150159  0.63171937    -0.22100
C925        C  0.05784019  0.18623624  0.58625775    -0.23200
C926        C  0.08168622  0.16285637  0.58808034    -0.23200
C927        C  0.91543398  0.04319628  0.61751493    -0.23200
C928        C  0.93895334  0.01962648  0.61939935    -0.23200
C929        C  0.99923394  0.18760207  0.60753277    -0.18500
C930        C  0.91578142  0.10346535  0.62119678    -0.18500
C931        C  0.99940275  0.01979100  0.62306705    -0.18500
C932        C  0.08317580  0.10441100  0.60995158    -0.18500
H933        H  0.94008631  0.21059528  0.64762518     0.14400
H934        H  0.89478298  0.16515460  0.65393269     0.14400
H935        H  0.10896243  0.04174690  0.63360665     0.14400
H936        H  0.06429443  0.99611164  0.63932882     0.14400
H937        H  0.06144050  0.21149598  0.57674996     0.12700
H938        H  0.10715127  0.16652312  0.58005333     0.12700
H939        H  0.88946828  0.03882533  0.61590818     0.12700
H940        H  0.93444875  0.99365808  0.61962674     0.12700
H941        H  0.97871043  0.12277697  0.59437199     0.25900
H942        H  0.01733477  0.08493972  0.60419128     0.25900
C943        C  0.67072932  0.10817437  0.63085712     0.80000
N944        N  0.65444078  0.08831277  0.66007642    -0.78300
C945        C  0.62145408  0.08963949  0.66268516     0.82400
N946        N  0.60473140  0.11035693  0.63519623    -0.78300
C947        C  0.62085820  0.13016501  0.60584374     0.82500
N948        N  0.65388940  0.12933880  0.60419068    -0.80000
C949        C  0.00295484  0.77394216  0.63170452     0.80000
N950        N  0.98360851  0.75822328  0.60146454    -0.78300
C951        C  0.98451195  0.72519382  0.59838930     0.82400
N952        N  0.00425164  0.70786059  0.62640509    -0.78300
C953        C  0.02327105  0.72323198  0.65703252     0.82500
N954        N  0.02263785  0.75623533  0.65954017    -0.80000
C955        C  0.32960361  0.11060882  0.62943697     0.80000
N956        N  0.34716122  0.09042007  0.60253543    -0.78300
C957        C  0.38022590  0.09039674  0.60426748     0.82400
N958        N  0.39575810  0.11012283  0.63375567    -0.78300
C959        C  0.37864289  0.12995173  0.66139481     0.82500
N960        N  0.34551135  0.13035973  0.65900727    -0.80000
O961        O  0.11263104  0.53719566  0.54530311    -0.73200
O962        O  0.06162357  0.48444010  0.95378944    -0.74100
O963        O  0.11298776  0.53244268  0.95365377    -0.62800
O964        O  0.06212046  0.48875246  0.54876609    -0.71200
O965        O  0.02502600  0.52811428  0.54732122    -0.70700
O966        O  0.07512770  0.57104605  0.95102547    -0.62000
O967        O  0.02486513  0.52407935  0.95190936    -0.74500
O968        O  0.07464441  0.57571504  0.54405140    -0.73300
Cu969      Cu  0.08874146  0.51022371  0.49968608     1.04600
Cu970      Cu  0.04847004  0.55177480  0.49774946     1.04300
C971        C  0.10178801  0.56463760  0.55856560     0.93000
C972        C  0.03525640  0.49663102  0.93805189     0.92200
C973        C  0.10235410  0.55950441  0.93793036     0.84300
C974        C  0.03556241  0.50112788  0.56319708     0.90600
O975        O  0.56592086  0.22723255  0.55565401    -0.73200
O976        O  0.61750225  0.17567933  0.95969911    -0.74100
O977        O  0.56686899  0.22449874  0.95799781    -0.62800
O978        O  0.61482275  0.17693747  0.55874085    -0.71200
O979        O  0.57560426  0.13962037  0.55791298    -0.70700
O980        O  0.52945537  0.18536857  0.95978453    -0.62000
O981        O  0.57897023  0.13768837  0.96139119    -0.74500
O982        O  0.52773268  0.18887933  0.55452562    -0.73300
Cu983      Cu  0.59317281  0.20338613  0.50966722     1.04600
Cu984      Cu  0.55165371  0.16304115  0.50830776     1.04300
C985        C  0.53863298  0.21583755  0.56942844     0.93000
C986        C  0.60602887  0.14848857  0.94613547     0.92200
C987        C  0.53993983  0.21248017  0.94418274     0.84300
C988        C  0.60272374  0.15010530  0.57315564     0.90600
O989        O  0.88783788  0.67235563  0.54932060    -0.73200
O990        O  0.93737358  0.71564827  0.94913175    -0.74100
O991        O  0.88705738  0.66718461  0.95296717    -0.62800
O992        O  0.93904636  0.72042614  0.54845986    -0.71200
O993        O  0.97557255  0.68058363  0.54967566    -0.70700
O994        O  0.92522964  0.62883037  0.95466529    -0.62000
O995        O  0.97452558  0.67633129  0.95149308    -0.74500
O996        O  0.92542259  0.63348008  0.55096318    -0.73300
Cu997      Cu  0.91096303  0.69447279  0.99833765     1.04600
Cu998      Cu  0.95175937  0.65514819  0.50234883     1.04300
C999        C  0.89851054  0.64523694  0.56486776     0.93000
C1000       C  0.96400154  0.70320891  0.93519849     0.92200
C1001       C  0.89816270  0.63977099  0.93989434     0.84300
C1002       C  0.96538759  0.70803123  0.56393805     0.90600
O1003       O  0.38819371  0.04608730  0.96294814    -0.73200
O1004       O  0.43788716  0.99471898  0.55735037    -0.74100
O1005       O  0.38814732  0.04440216  0.55684693    -0.62800
O1006       O  0.43728760  0.99661810  0.96508869    -0.71200
O1007       O  0.47502228  0.03542730  0.96239621    -0.70700
O1008       O  0.42684589  0.08221109  0.55875530    -0.62000
O1009       O  0.47556772  0.03358104  0.55928308    -0.74500
O1010       O  0.42671966  0.08413814  0.96127199    -0.73300
Cu1011     Cu  0.41243108  0.01889100  0.50954380     1.04600
Cu1012     Cu  0.45338739  0.05984436  0.51134300     1.04300
C1013       C  0.39965319  0.07277000  0.94710722     0.93000
C1014       C  0.46457469  0.00612280  0.57287564     0.92200
C1015       C  0.39933088  0.07121584  0.57210038     0.84300
C1016       C  0.46391529  0.00804166  0.94923143     0.90600
O1017       O  0.11970648  0.66563036  0.70134017    -0.73200
O1018       O  0.07032256  0.71322265  0.79831686    -0.74100
O1019       O  0.11984620  0.66357256  0.79762525    -0.62800
O1020       O  0.07000604  0.71513217  0.70348374    -0.71200
O1021       O  0.03208950  0.67649464  0.70257002    -0.70700
O1022       O  0.08106951  0.62584412  0.79654434    -0.62000
O1023       O  0.03252765  0.67445340  0.79801681    -0.74500
O1024       O  0.08068761  0.62814240  0.70039488    -0.73300
Cu1025     Cu  0.09645167  0.69069119  0.75023318     1.04600
Cu1026     Cu  0.05539612  0.64986438  0.74936082     1.04300
C1027       C  0.10756505  0.63948514  0.68527213     0.93000
C1028       C  0.04332783  0.70156357  0.81263326     0.92200
C1029       C  0.10793182  0.63666200  0.81219258     0.84300
C1030       C  0.04288421  0.70403862  0.68893088     0.90600
O1031       O  0.38573483  0.17568777  0.80506144    -0.73200
O1032       O  0.43406927  0.22634999  0.70895622    -0.74100
O1033       O  0.38463331  0.17610003  0.70961013    -0.62800
O1034       O  0.43479696  0.22582646  0.80465958    -0.71200
O1035       O  0.47297900  0.18756283  0.80416732    -0.70700
O1036       O  0.42374497  0.13879053  0.70947200    -0.62000
O1037       O  0.47198560  0.18779532  0.70829731    -0.74500
O1038       O  0.42506776  0.13854699  0.80512291    -0.73300
Cu1039     Cu  0.40840305  0.20239620  0.75705709     1.04600
Cu1040     Cu  0.44973486  0.16192679  0.75670034     1.04300
C1041       C  0.39791124  0.14903479  0.81995367     0.93000
C1042       C  0.46086339  0.21496105  0.69383371     0.92200
C1043       C  0.39636501  0.14933846  0.69500180     0.84300
C1044       C  0.46178727  0.21433161  0.81933841     0.90600
O1045       O  0.92006393  0.57428889  0.80073559    -0.73200
O1046       O  0.96860587  0.52812714  0.70315714    -0.74100
O1047       O  0.92039250  0.57682677  0.70479279    -0.62800
O1048       O  0.96878616  0.52603518  0.79881422    -0.71200
O1049       O  0.93101213  0.48727951  0.79779545    -0.70700
O1050       O  0.88128720  0.53944693  0.70341578    -0.62000
O1051       O  0.93069146  0.48949076  0.70251016    -0.74500
O1052       O  0.88109218  0.53676687  0.79966493    -0.73300
Cu1053     Cu  0.94567779  0.55263217  0.75192271     1.04600
Cu1054     Cu  0.90455984  0.51189118  0.75078079     1.04300
C1055       C  0.89308266  0.56299365  0.81565349     0.93000
C1056       C  0.95761537  0.50122943  0.68805254     0.92200
C1057       C  0.89338497  0.56641020  0.68921576     0.84300
C1058       C  0.95801450  0.49854168  0.81262711     0.90600
O1059       O  0.57689032  0.08105414  0.71169450    -0.73200
O1060       O  0.52964245  0.03243120  0.80880227    -0.74100
O1061       O  0.57765570  0.08158220  0.80750117    -0.62800
O1062       O  0.52926849  0.03173098  0.71323241    -0.71200
O1063       O  0.56722830  0.99319898  0.71394598    -0.70700
O1064       O  0.61655462  0.04401889  0.80757039    -0.62000
O1065       O  0.56748530  0.99379755  0.80929549    -0.74500
O1066       O  0.61597777  0.04368304  0.71202626    -0.73300
Cu1067     Cu  0.55206387  0.05794904  0.76029033     1.04600
Cu1068     Cu  0.59324693  0.01730220  0.76073479     1.04300
C1069       C  0.60394952  0.07035129  0.69681178     0.93000
C1070       C  0.54067139  0.00543272  0.82400673     0.92200
C1071       C  0.60491160  0.07083015  0.82207460     0.84300
C1072       C  0.54030619  0.00460554  0.69908896     0.90600
C1073       C  0.17311256  0.09316948  0.58134485    -0.11600
C1074       C  0.18819362  0.10521566  0.62040835     0.14900
C1075       C  0.16845084  0.11710542  0.65568206     0.01800
C1076       C  0.13449587  0.11730965  0.65081472    -0.16000
C1077       C  0.11949252  0.10514266  0.61184432    -0.10800
C1078       C  0.13912277  0.09286057  0.57675994     0.08600
C1079       C  0.22445995  0.10625421  0.62274130     0.09600
S1080       S  0.18514113  0.13152580  0.70812832    -0.25100
H1081       H  0.11953592  0.12634905  0.67809620     0.19900
S1082       S  0.12232645  0.07576003  0.52591732    -0.30800
H1083       H  0.18799966  0.08407905  0.55403994     0.10200
C1084       C  0.24345911  0.07766061  0.62102984     0.03400
C1085       C  0.27757922  0.07993506  0.62313158    -0.13100
C1086       C  0.29340483  0.11018878  0.62686034    -0.08800
C1087       C  0.27427343  0.13884940  0.62769322     0.06800
C1088       C  0.24020757  0.13653222  0.62601856    -0.13800
S1089       S  0.22437622  0.03805828  0.61805375    -0.30800
H1090       H  0.29205095  0.05790903  0.62270577     0.11100
S1091       S  0.29168518  0.17915829  0.62831430    -0.27900
H1092       H  0.22579166  0.15863012  0.62638988     0.08300
H1093       H  0.09348487  0.09415166  0.52520372     0.26700
H1094       H  0.25300643  0.02018371  0.61024823     0.21500
H1095       H  0.31779951  0.17164104  0.59951887     0.26800
H1096       H  0.21149278  0.10968035  0.70946703     0.15700
C1097       C  0.98987742  0.92999675  0.59427621    -0.11600
C1098       C  0.99785499  0.91497203  0.63556379     0.14900
C1099       C  0.00649044  0.93459835  0.67266637     0.01800
C1100       C  0.00715996  0.96853687  0.66755235    -0.16000
C1101       C  0.99953944  0.98351115  0.62609359    -0.10800
C1102       C  0.99066266  0.96388258  0.58910284     0.08600
C1103       C  0.99845377  0.87883071  0.63779844     0.09600
S1104       S  0.01647727  0.91798997  0.72746617    -0.25100
H1105       H  0.01342090  0.98349565  0.69625069     0.19900
S1106       S  0.97873149  0.98063890  0.53509618    -0.30800
H1107       H  0.98327015  0.91511145  0.56566046     0.10200
C1108       C  0.96997853  0.86017073  0.63153737     0.03400
C1109       C  0.97216996  0.82606345  0.62984912    -0.13100
C1110       C  0.00226321  0.81005656  0.63438075    -0.08800
C1111       C  0.03071173  0.82896266  0.64125397     0.06800
C1112       C  0.02841596  0.86294807  0.64325758    -0.13800
S1113       S  0.93073684  0.87977808  0.62662156    -0.30800
H1114       H  0.95028991  0.81173564  0.62522740     0.11100
S1115       S  0.07096694  0.81164470  0.64460815    -0.27900
H1116       H  0.05038869  0.87726519  0.64745978     0.08300
H1117       H  0.99887214  0.00830996  0.53679478     0.26700
H1118       H  0.91223287  0.85124806  0.62099441     0.21500
H1119       H  0.06570141  0.78890483  0.61010299     0.26800
H1120       H  0.99661562  0.89019197  0.72432078     0.15700
C1121       C  0.75746691  0.07732539  0.62074075    -0.11600
C1122       C  0.77514273  0.10608414  0.62775851     0.14900
C1123       C  0.75832530  0.13558040  0.63471836     0.01800
C1124       C  0.72424901  0.13572410  0.63422884    -0.16000
C1125       C  0.70652510  0.10686803  0.62808195    -0.10800
C1126       C  0.72338662  0.07742339  0.62060821     0.08600
C1127       C  0.81107100  0.10478862  0.62628108     0.09600
S1128       S  0.77889106  0.17368406  0.64496309    -0.25100
H1129       H  0.71143815  0.15837991  0.63999843     0.19900
S1130       S  0.70289565  0.03952597  0.60898590    -0.30800
H1131       H  0.77035903  0.05475296  0.61470253     0.10200
C1132       C  0.82920341  0.09199790  0.66269476     0.03400
C1133       C  0.86329909  0.09215140  0.66050711    -0.13100
C1134       C  0.87956089  0.10411708  0.62210410    -0.08800
C1135       C  0.86123493  0.11638107  0.58529886     0.06800
C1136       C  0.82723597  0.11690252  0.58799951    -0.13800
S1137       S  0.80895619  0.07645838  0.71249899    -0.30800
H1138       H  0.87744670  0.08292574  0.68867920     0.11100
S1139       S  0.87974666  0.13184727  0.53419871    -0.27900
H1140       H  0.81321038  0.12656358  0.55991517     0.08300
H1141       H  0.67642177  0.05358683  0.58582526     0.26700
H1142       H  0.83615805  0.06008247  0.73048213     0.21500
H1143       H  0.90683214  0.11093008  0.53483223     0.26800
H1144       H  0.80666998  0.16038589  0.66582721     0.15700
C1145       C  0.97865206  0.27704651  0.58452299    -0.11600
C1146       C  0.00003726  0.29272654  0.61426835     0.14900
C1147       C  0.02162871  0.27380400  0.64071188     0.01800
C1148       C  0.02006287  0.23983742  0.63872937    -0.16000
C1149       C  0.99926878  0.22402842  0.60819600    -0.10800
C1150       C  0.97875101  0.24312738  0.58006280     0.08600
C1151       C  0.99898788  0.32874497  0.61731569     0.09600
S1152       S  0.05263095  0.29138547  0.67618530    -0.25100
H1153       H  0.03592050  0.22552350  0.66039405     0.19900
S1154       S  0.95230311  0.22607201  0.53764636    -0.30800
H1155       H  0.96218306  0.29147265  0.56390527     0.10200
C1156       C  0.00760809  0.34871156  0.58032289     0.03400
C1157       C  0.00637661  0.38261012  0.58466112    -0.13100
C1158       C  0.99725426  0.39737869  0.62547582    -0.08800
C1159       C  0.98911023  0.37710543  0.66284573     0.06800
C1160       C  0.98955742  0.34317520  0.65802190    -0.13800
S1161       S  0.02125550  0.33114607  0.52788918    -0.30800
H1162       H  0.01256833  0.39771308  0.55579032     0.11100
S1163       S  0.97954392  0.39244686  0.71810869    -0.27900
H1164       H  0.98314866  0.32779602  0.68658122     0.08300
H1165       H  0.97068044  0.19783638  0.52990960     0.26700
H1166       H  0.02801696  0.36058726  0.50508064     0.21500
H1167       H  0.00473000  0.41571975  0.71795407     0.26800
H1168       H  0.05709217  0.31996745  0.65042872     0.15700
C1169       C  0.83085713  0.09675153  0.84756162    -0.11600
C1170       C  0.81411540  0.09876348  0.88867625     0.14900
C1171       C  0.83198547  0.09982222  0.92938469     0.01800
C1172       C  0.86609493  0.09988477  0.92806772    -0.16000
C1173       C  0.88285280  0.09807516  0.88693994    -0.10800
C1174       C  0.86496396  0.09611892  0.84628559     0.08600
C1175       C  0.77808509  0.10093035  0.88805298     0.09600
S1176       S  0.81257678  0.10180669  0.98382201    -0.25100
H1177       H  0.87974345  0.10123417  0.95927728     0.19900
S1178       S  0.88429738  0.09420869  0.79172951    -0.30800
H1179       H  0.81723469  0.09597432  0.81625725     0.10200
C1180       C  0.76200693  0.13113514  0.89101791     0.03400
C1181       C  0.72779973  0.13203838  0.89190291    -0.13100
C1182       C  0.70926517  0.10331799  0.88921329    -0.08800
C1183       C  0.72564556  0.07302545  0.88639393     0.06800
C1184       C  0.75973829  0.07224065  0.88524735    -0.13800
S1185       S  0.78515212  0.16854606  0.89242493    -0.30800
H1186       H  0.71540088  0.15525494  0.89362771     0.11100
S1187       S  0.70468876  0.03439838  0.88634861    -0.27900
H1188       H  0.77213720  0.04899784  0.88333750     0.08300
H1189       H  0.91175625  0.07641240  0.80571705     0.26700
H1190       H  0.75834315  0.18982041  0.89368397     0.21500
H1191       H  0.68023203  0.04394833  0.91671559     0.26800
H1192       H  0.78556640  0.08244991  0.97261323     0.15700
C1193       C  0.00524288  0.27356816  0.91138091    -0.11600
C1194       C  0.00310291  0.28882233  0.86891931     0.14900
C1195       C  0.00124667  0.26946702  0.82981892     0.01800
C1196       C  0.00041659  0.23547983  0.83416673    -0.16000
C1197       C  0.00203151  0.22020989  0.87668789    -0.10800
C1198       C  0.00461618  0.23957143  0.91576131     0.08600
C1199       C  0.00234548  0.32490982  0.86686100     0.09600
S1200       S  0.99991957  0.28656725  0.77356416    -0.25100
H1201       H  0.99884070  0.22072275  0.80409029     0.19900
S1202       S  0.00820623  0.22265044  0.97197198    -0.30800
H1203       H  0.00701602  0.28833325  0.94143497     0.10200
C1204       C  0.97346874  0.34207642  0.85696150     0.03400
C1205       C  0.97367906  0.37626895  0.85712876    -0.13100
C1206       C  0.00227580  0.39381244  0.86661296    -0.08800
C1207       C  0.03153761  0.37635764  0.87445385     0.06800
C1208       C  0.03105179  0.34225259  0.87548146    -0.13800
S1209       S  0.93599043  0.32051013  0.84592694    -0.30800
H1210       H  0.95119735  0.38936779  0.85111655     0.11100
S1211       S  0.07059621  0.39586122  0.88104087    -0.27900
H1212       H  0.05341618  0.32904437  0.88213131     0.08300
H1213       H  0.99372599  0.19233084  0.96346406     0.26700
H1214       H  0.91831766  0.34763621  0.83004930     0.21500
H1215       H  0.06441679  0.42063763  0.84903240     0.26800
H1216       H  0.01756217  0.31505183  0.78307687     0.15700
C1217       C  0.17449456  0.11538163  0.83953564    -0.11600
C1218       C  0.19098306  0.10072099  0.87591862     0.14900
C1219       C  0.17281931  0.08661829  0.91158821     0.01800
C1220       C  0.13883060  0.08602590  0.90894164    -0.16000
C1221       C  0.12234785  0.10051270  0.87246473    -0.10800
C1222       C  0.14043773  0.11551170  0.83744788     0.08600
C1223       C  0.22702676  0.10185099  0.87654716     0.09600
S1224       S  0.19135999  0.07028804  0.96218722    -0.25100
H1225       H  0.12497959  0.07500101  0.93621018     0.19900
S1226       S  0.12152567  0.13579973  0.78994220    -0.30800
H1227       H  0.18832886  0.12684487  0.81260557     0.10200
C1228       C  0.24621707  0.07342994  0.87389757     0.03400
C1229       C  0.28024668  0.07599735  0.87695777    -0.13100
C1230       C  0.29543040  0.10648404  0.88112280    -0.08800
C1231       C  0.27611608  0.13489082  0.88291413     0.06800
C1232       C  0.24224886  0.13226756  0.88033281    -0.13800
S1233       S  0.22753886  0.03416064  0.86479217    -0.30800
H1234       H  0.29516897  0.05431785  0.87502521     0.11100
S1235       S  0.29302817  0.17506098  0.89025201    -0.27900
H1236       H  0.22752411  0.15410639  0.88232294     0.08300
H1237       H  0.09339907  0.11630693  0.78867844     0.26700
H1238       H  0.25663144  0.01649049  0.85975809     0.21500
H1239       H  0.31879290  0.16509456  0.91846011     0.26800
H1240       H  0.21805186  0.09175758  0.96267732     0.15700
C1241       C  0.01356460  0.85979802  0.83776965    -0.11600
C1242       C  0.00213755  0.87521475  0.87673396     0.14900
C1243       C  0.98988396  0.85601991  0.91265561     0.01800
C1244       C  0.99130764  0.82208958  0.90993370    -0.16000
C1245       C  0.00309368  0.80635790  0.87115142    -0.10800
C1246       C  0.01356900  0.82573612  0.83399800     0.08600
C1247       C  0.00281166  0.91131878  0.87806173     0.09600
S1248       S  0.97134660  0.87300711  0.96245320    -0.25100
H1249       H  0.98263795  0.80787136  0.93848428     0.19900
S1250       S  0.02534514  0.80807311  0.78067885    -0.30800
H1251       H  0.02240068  0.87469456  0.81006823     0.10200
C1252       C  0.02207840  0.92841160  0.90946864     0.03400
C1253       C  0.02156275  0.96256883  0.90921207    -0.13100
C1254       C  0.00327647  0.98003082  0.87709071    -0.08800
C1255       C  0.98535408  0.96283468  0.84426989     0.06800
C1256       C  0.98474128  0.92879830  0.84575598    -0.13800
S1257       S  0.04847845  0.90695447  0.94845044    -0.30800
H1258       H  0.03589158  0.97589003  0.93355199     0.11100
S1259       S  0.96350754  0.98283391  0.79901672    -0.27900
H1260       H  0.97052318  0.91574562  0.82093021     0.08300
H1261       H  0.02892105  0.83736808  0.75616002     0.26700
H1262       H  0.06095150  0.93459624  0.97025324     0.21500
H1263       H  0.98474432  0.00958821  0.79490017     0.26800
H1264       H  0.96085778  0.90230567  0.94236348     0.15700
C1265       C  0.74496682  0.60473819  0.94499894    -0.11600
C1266       C  0.72452180  0.59691599  0.90885323     0.14900
C1267       C  0.73849510  0.58511570  0.86856329     0.01800
C1268       C  0.77243797  0.58392053  0.86412209    -0.16000
C1269       C  0.79304376  0.59284691  0.89982174    -0.10800
C1270       C  0.77875364  0.60158731  0.94166893     0.08600
C1271       C  0.68894780  0.60260156  0.91312168     0.09600
S1272       S  0.71431809  0.57123817  0.82161203    -0.25100
H1273       H  0.78275112  0.57643194  0.83221250     0.19900
S1274       S  0.80171328  0.60773934  0.99286760    -0.30800
H1275       H  0.73450806  0.61311524  0.97631976     0.10200
C1276       C  0.66979613  0.58605360  0.94562319     0.03400
C1277       C  0.63592993  0.59039149  0.94546755    -0.13100
C1278       C  0.62068999  0.61014821  0.91279950    -0.08800
C1279       C  0.63999254  0.62743792  0.88121939     0.06800
C1280       C  0.67385479  0.62411091  0.88252106    -0.13800
S1281       S  0.68795869  0.55795025  0.98561753    -0.30800
H1282       H  0.62097768  0.57743080  0.96980761     0.11100
S1283       S  0.62299092  0.65283788  0.83714366    -0.27900
H1284       H  0.68853745  0.63722280  0.85797328     0.08300
H1285       H  0.82411605  0.58261624  0.98428280     0.26700
H1286       H  0.65873555  0.54658513  0.00492444     0.21500
H1287       H  0.59481975  0.63403498  0.83028757     0.26800
H1288       H  0.68816407  0.55958380  0.84785488     0.15700
C1289       C  0.51726123  0.43657387  0.93255011    -0.11600
C1290       C  0.50124815  0.42145862  0.89639964     0.14900
C1291       C  0.48556108  0.44103125  0.86348517     0.01800
C1292       C  0.48596902  0.47493503  0.86764458    -0.16000
C1293       C  0.50226202  0.49003976  0.90346493    -0.10800
C1294       C  0.51810244  0.47053951  0.93638028     0.08600
C1295       C  0.50061841  0.38531825  0.89451049     0.09600
S1296       S  0.46518634  0.42435841  0.81490708    -0.25100
H1297       H  0.47392399  0.48979854  0.84224699     0.19900
S1298       S  0.53980722  0.48720242  0.98395921    -0.30800
H1299       H  0.52903139  0.42171877  0.95820309     0.10200
C1300       C  0.52953573  0.36704775  0.89043321     0.03400
C1301       C  0.52777381  0.33298349  0.88877223    -0.13100
C1302       C  0.49771609  0.31668121  0.89004388    -0.08800
C1303       C  0.46877571  0.33496839  0.89439922     0.06800
C1304       C  0.47055939  0.36899460  0.89668973    -0.13800
S1305       S  0.56861733  0.38702131  0.88505851    -0.30800
H1306       H  0.54991092  0.31890453  0.88537358     0.11100
S1307       S  0.42904957  0.31644639  0.89869783    -0.27900
H1308       H  0.44832774  0.38291797  0.90043343     0.08300
H1309       H  0.52275593  0.51675794  0.98631394     0.26700
H1310       H  0.58754239  0.35863495  0.88126719     0.21500
H1311       H  0.43945223  0.28876820  0.92300213     0.26800
H1312       H  0.48628603  0.39769562  0.80970856     0.15700
C1313       C  0.25823195  0.59729999  0.93812519    -0.11600
C1314       C  0.27688296  0.61067528  0.90293789     0.14900
C1315       C  0.26086914  0.62387540  0.86477929     0.01800
C1316       C  0.22698377  0.62152137  0.86133919    -0.16000
C1317       C  0.20805305  0.60745779  0.89601598    -0.10800
C1318       C  0.22416184  0.59661484  0.93593264     0.08600
C1319       C  0.31293871  0.60938161  0.90584296     0.09600
S1320       S  0.28225627  0.64414611  0.81929178    -0.25100
H1321       H  0.21542094  0.63070027  0.83092351     0.19900
S1322       S  0.20325830  0.58315505  0.98628404    -0.30800
H1323       H  0.27035080  0.58766369  0.96789449     0.10200
C1324       C  0.33035916  0.62593023  0.93973585     0.03400
C1325       C  0.36448706  0.62517779  0.93947015    -0.13100
C1326       C  0.38162906  0.60850097  0.90584729    -0.08800
C1327       C  0.36411802  0.59184024  0.87206175     0.06800
C1328       C  0.33008661  0.59188855  0.87304032    -0.13800
S1329       S  0.30945545  0.64946398  0.98197951    -0.30800
H1330       H  0.37802551  0.63807356  0.96511881     0.11100
S1331       S  0.38362519  0.57100094  0.82603791    -0.27900
H1332       H  0.31677406  0.57901633  0.84710280     0.08300
H1333       H  0.17988392  0.60819313  0.98442097     0.26700
H1334       H  0.33656698  0.65431478  0.01022764     0.21500
H1335       H  0.41061681  0.59199493  0.82285266     0.26800
H1336       H  0.30757247  0.65658336  0.84612575     0.15700
C1337       C  0.53044255  0.85147176  0.90381336    -0.11600
C1338       C  0.50119630  0.83433479  0.89763740     0.14900
C1339       C  0.47215450  0.85189954  0.88956587     0.01800
C1340       C  0.47295761  0.88600527  0.88822746    -0.16000
C1341       C  0.50231187  0.90306823  0.89360789    -0.10800
C1342       C  0.53127695  0.88555099  0.90210757     0.08600
C1343       C  0.50155052  0.79828128  0.90154238     0.09600
S1344       S  0.43350783  0.83221870  0.87985139    -0.25100
H1345       H  0.45062668  0.89933363  0.88182074     0.19900
S1346       S  0.56969300  0.90529317  0.91314271    -0.30800
H1347       H  0.55268567  0.83816567  0.91085495     0.10200
C1348       C  0.51778909  0.77892062  0.86959602     0.03400
C1349       C  0.51749406  0.74491713  0.87462733    -0.13100
C1350       C  0.50090744  0.72975619  0.91055790    -0.08800
C1351       C  0.48451234  0.74923316  0.94248536     0.06800
C1352       C  0.48517265  0.78319923  0.93768724    -0.13800
S1353       S  0.53744152  0.79738396  0.82114157    -0.30800
H1354       H  0.52961739  0.72988673  0.84994445     0.11100
S1355       S  0.46170982  0.73254581  0.98940174    -0.27900
H1356       H  0.47267764  0.79807125  0.96224983     0.08300
H1357       H  0.55638765  0.93211082  0.93588069     0.26700
H1358       H  0.54894774  0.76835698  0.80199926     0.21500
H1359       H  0.47803390  0.70257515  0.99242520     0.26800
H1360       H  0.44632466  0.80454409  0.85862690     0.15700
C1361       C  0.32854234  0.59849486  0.55585094    -0.11600
C1362       C  0.31174897  0.61249016  0.59209062     0.14900
C1363       C  0.32965812  0.62667302  0.62764751     0.01800
C1364       C  0.36366476  0.62745505  0.62552463    -0.16000
C1365       C  0.38048482  0.61351207  0.58933656    -0.10800
C1366       C  0.36265236  0.59903328  0.55392986     0.08600
C1367       C  0.27567724  0.61089657  0.59305396     0.09600
S1368       S  0.31071190  0.64303113  0.67751277    -0.25100
H1369       H  0.37725373  0.63809874  0.65309356     0.19900
S1370       S  0.38196503  0.58053305  0.50584160    -0.30800
H1371       H  0.31494547  0.58724350  0.52876050     0.10200
C1372       C  0.25628198  0.63920465  0.59047083     0.03400
C1373       C  0.22253819  0.63677879  0.59753800    -0.13100
C1374       C  0.20774351  0.60652384  0.60614890    -0.08800
C1375       C  0.22713625  0.57807847  0.60701700     0.06800
C1376       C  0.26075450  0.58055843  0.60010441    -0.13800
S1377       S  0.27443401  0.67824398  0.57728797    -0.30800
H1378       H  0.20750011  0.65840256  0.59568693     0.11100
S1379       S  0.21082012  0.53812968  0.61909867    -0.27900
H1380       H  0.27562455  0.55879173  0.60211776     0.08300
H1381       H  0.41008474  0.60009419  0.50594483     0.26700
H1382       H  0.24590949  0.69685155  0.58200033     0.21500
H1383       H  0.18671034  0.54870897  0.64929600     0.26800
H1384       H  0.28437549  0.62113331  0.67876021     0.15700
C1385       C  0.47410099  0.84935029  0.62093317    -0.11600
C1386       C  0.50314323  0.83267515  0.62982773     0.14900
C1387       C  0.53105250  0.85023924  0.64303754     0.01800
C1388       C  0.52948730  0.88422846  0.64587116    -0.16000
C1389       C  0.50051930  0.90119498  0.63623584    -0.10800
C1390       C  0.47227052  0.88319330  0.62469456     0.08600
C1391       C  0.50341808  0.79701183  0.62426295     0.09600
S1392       S  0.56947952  0.83089163  0.65575068    -0.25100
H1393       H  0.55130114  0.89755427  0.65488854     0.19900
S1394       S  0.43279643  0.90142928  0.61607892    -0.30800
H1395       H  0.45254382  0.83576203  0.61141277     0.10200
C1396       C  0.48912068  0.77623904  0.65674066     0.03400
C1397       C  0.48874748  0.74260966  0.64937181    -0.13100
C1398       C  0.50245154  0.72942184  0.61023282    -0.08800
C1399       C  0.51710433  0.75028123  0.57787093     0.06800
C1400       C  0.51739978  0.78387896  0.58531351    -0.13800
S1401       S  0.47204765  0.79255630  0.70796651    -0.30800
H1402       H  0.47797584  0.72637297  0.67422148     0.11100
S1403       S  0.53616202  0.73585673  0.52687228    -0.27900
H1404       H  0.52837516  0.79998667  0.56042711     0.08300
H1405       H  0.43618255  0.92396518  0.65128270     0.26700
H1406       H  0.46289672  0.76254417  0.72746033     0.21500
H1407       H  0.52072226  0.70538371  0.52486943     0.26800
H1408       H  0.55679305  0.80060428  0.66955428     0.15700
C1409       C  0.74068783  0.57944653  0.60593975    -0.11600
C1410       C  0.72407141  0.60867428  0.61372688     0.14900
C1411       C  0.74193402  0.63719802  0.62345401     0.01800
C1412       C  0.77597313  0.63583630  0.62482485    -0.16000
C1413       C  0.79257882  0.60647670  0.61776641    -0.10800
C1414       C  0.77471348  0.57811898  0.60736870     0.08600
C1415       C  0.68815307  0.60848594  0.61137901     0.09600
S1416       S  0.72295374  0.67595830  0.63465371    -0.25100
H1417       H  0.78961888  0.65771061  0.63254516     0.19900
S1418       S  0.79388965  0.53995708  0.59377349    -0.30800
H1419       H  0.72702251  0.55764070  0.59793217     0.10200
C1420       C  0.67134759  0.62152233  0.57388445     0.03400
C1421       C  0.63723130  0.62100394  0.57349798    -0.13100
C1422       C  0.61969348  0.60802209  0.61007328    -0.08800
C1423       C  0.63658506  0.59535087  0.64784598     0.06800
C1424       C  0.67062983  0.59517864  0.64771856    -0.13800
S1425       S  0.69331082  0.63868435  0.52659473    -0.30800
H1426       H  0.62403873  0.63075344  0.54474755     0.11100
S1427       S  0.61615392  0.57953715  0.69726960    -0.27900
H1428       H  0.68361554  0.58534207  0.67663290     0.08300
H1429       H  0.82146667  0.55378143  0.57292773     0.26700
H1430       H  0.66594083  0.64656635  0.50008128     0.21500
H1431       H  0.58911217  0.60043180  0.69473616     0.26800
H1432       H  0.69303636  0.66380181  0.65047003     0.15700
C1433       C  0.52741382  0.37151797  0.62174984    -0.11600
C1434       C  0.49747954  0.38770026  0.62461616     0.14900
C1435       C  0.46883910  0.36961916  0.63298227     0.01800
C1436       C  0.47061979  0.33564222  0.63647685    -0.16000
C1437       C  0.50051514  0.31926081  0.63256377    -0.10800
C1438       C  0.52935874  0.33769201  0.62657313     0.08600
C1439       C  0.49713256  0.42341220  0.61834590     0.09600
S1440       S  0.42936925  0.38836190  0.63899097    -0.25100
H1441       H  0.44837066  0.32185757  0.64151592     0.19900
S1442       S  0.56947729  0.31987645  0.62676644    -0.30800
H1443       H  0.54951402  0.38547127  0.61624961     0.10200
C1444       C  0.50966779  0.44415056  0.65173604     0.03400
C1445       C  0.50994514  0.47781055  0.64397267    -0.13100
C1446       C  0.49814778  0.49113835  0.60338558    -0.08800
C1447       C  0.48567727  0.47030481  0.56978550     0.06800
C1448       C  0.48512345  0.43665048  0.57781710    -0.13800
S1449       S  0.52451932  0.42779226  0.70469511    -0.30800
H1450       H  0.51916791  0.49399316  0.66967107     0.11100
S1451       S  0.47015320  0.48487916  0.51625100    -0.27900
H1452       H  0.47569407  0.42058012  0.55208151     0.08300
H1453       H  0.56213839  0.29585311  0.65939509     0.26700
H1454       H  0.53479670  0.45756853  0.72305531     0.21500
H1455       H  0.48658823  0.51488548  0.51540231     0.26800
H1456       H  0.44059442  0.41804649  0.65647236     0.15700
loop_ 
_geom_bond_atom_site_label_1 
_geom_bond_atom_site_label_2 
_geom_bond_distance 
_geom_bond_site_symmetry_2 
_ccdc_geom_bond_type 
C1            N2   1.364       .  A
C1            N6   1.360       .  A
C1          C709   1.488       .  S
N2            C3   1.360       .  A
C3            N4   1.357       .  A
C3          C257   1.473       .  S
N4            C5   1.357       .  A
C5            N6   1.357       .  A
C5          C314   1.465       .  S
N7           C12   1.353       .  A
N7           C11   1.353       .  A
N7           H39   1.038       .  S
N8           C15   1.350       .  A
N8           C16   1.350       .  A
N9           C14   1.352       .  A
N9           C13   1.353       .  A
N9           H40   1.040       .  S
N10          C17   1.352       .  A
N10          C18   1.353       .  A
C11          C19   1.387       .  A
C11          C27   1.416       .  A
C12          C28   1.418       .  A
C12          C20   1.388       .  A
C13          C21   1.387       .  A
C13          C30   1.414       .  A
C14          C29   1.413       .  A
C14          C22   1.387       .  A
C15          C27   1.412       .  A
C15          C23   1.386       .  A
C16          C30   1.412       .  A
C16          C24   1.387       .  A
C17          C25   1.387       .  A
C17          C28   1.417       .  A
C18          C26   1.385       .  A
C18          C29   1.414       .  A
C19          C20   1.378       .  A
C19          H31   1.083       .  S
C20          H32   1.082       .  S
C21          C22   1.376       .  A
C21          H33   1.082       .  S
C22          H34   1.082       .  S
C23          C24   1.373       .  A
C23          H35   1.082       .  S
C24          H36   1.082       .  S
C25          C26   1.375       .  A
C25          H37   1.082       .  S
C26          H38   1.082       .  S
C27         C694   1.487       .  S
C28         C670   1.493       .  S
C29         C637   1.492       .  S
C30         C718   1.488       .  S
C41          N42   1.361       .  A
C41          N46   1.359       .  A
C41         C685   1.474       .  S
N42          C43   1.359       .  A
C43          N44   1.356       .  A
C43         C271   1.465       .  S
N44          C45   1.355       .  A
C45          N46   1.357       .  A
C45         C329   1.463       .  S
C47          N48   1.362       .  A
C47          N52   1.360       .  A
C47         C661   1.486       .  S
N48          C49   1.360       .  A
C49          N50   1.357   1_565  A
C49         C344   1.467   1_565  S
N50          C51   1.356   1_545  A
C51          N52   1.358       .  A
C51         C286   1.466   1_565  S
C53          N54   1.361       .  A
C53          N58   1.361       .  A
C53         C646   1.480       .  S
N54          C55   1.359       .  A
C55          N56   1.357       .  A
C55         C299   1.469       .  S
N56          C57   1.357       .  A
C57          N58   1.359       .  A
C57         C243   1.467       .  S
C59          N60   1.361       .  A
C59          N64   1.358       .  A
C59         C613   1.475       .  S
N60          C61   1.358       .  A
C61          N62   1.356   1_565  A
C61         C288   1.464   1_565  S
N62          C63   1.356   1_545  A
C63          N64   1.356       .  A
C63         C342   1.459   1_565  S
N65          C70   1.353       .  A
N65          C69   1.353       .  A
N65          H97   1.039       .  S
N66          C73   1.350       .  A
N66          C74   1.350       .  A
N67          C72   1.353       .  A
N67          C71   1.350       .  A
N67          H98   1.039       .  S
N68          C75   1.350       .  A
N68          C76   1.350       .  A
C69          C77   1.387       .  A
C69          C85   1.414       .  A
C70          C86   1.415       .  A
C70          C78   1.387       .  A
C71          C79   1.387       .  A
C71          C88   1.412       .  A
C72          C87   1.413       .  A
C72          C80   1.387       .  A
C73          C85   1.411       .  A
C73          C81   1.387       .  A
C74          C88   1.410       .  A
C74          C82   1.386       .  A
C75          C83   1.386       .  A
C75          C86   1.410       .  A
C76          C84   1.386       .  A
C76          C87   1.412       .  A
C77          C78   1.377       .  A
C77          H89   1.082       .  S
C78          H90   1.082       .  S
C79          C80   1.377       .  A
C79          H91   1.083       .  S
C80          H92   1.082       .  S
C81          C82   1.373       .  A
C81          H93   1.083       .  S
C82          H94   1.082       .  S
C83          C84   1.373       .  A
C83          H95   1.082       .  S
C84          H96   1.082       .  S
C85         C598   1.486       .  S
C86         C565   1.487       .  S
C87         C550   1.490       .  S
C88         C622   1.481       .  S
C99         N100   1.362       .  A
C99         N104   1.361       .  A
C99         C589   1.498       .  S
N100        C101   1.356       .  A
C101        N102   1.355       .  A
C101        C301   1.466       .  S
N102        C103   1.356       .  A
C103        N104   1.360       .  A
C103        C245   1.466       .  S
C105        N106   1.363       .  A
C105        N110   1.361       .  A
C105        C574   1.480       .  S
N106        C107   1.362       .  A
C107        N108   1.356       .  A
C107        C259   1.470       .  S
N108        C109   1.355       .  A
C109        N110   1.358       .  A
C109        C316   1.466       .  S
C111        N112   1.363       .  A
C111        N116   1.361       .  A
C111        C541   1.489       .  S
N112        C113   1.360       .  A
C113        N114   1.357       .  A
C113        C273   1.471       .  S
N114        C115   1.357       .  A
C115        N116   1.357       .  A
C115        C327   1.466       .  S
C117        N118   1.360       .  A
C117        N122   1.360   1_455  A
C117        C517   1.480       .  S
N118        C119   1.359       .  A
C119        N120   1.360       .  A
C119        C300   1.469       .  S
N120        C121   1.359   1_455  A
C121        N122   1.357       .  A
C121        C272   1.468       .  S
N123        C128   1.352       .  A
N123        C127   1.353       .  A
N123        H155   1.039       .  S
N124        C131   1.352       .  A
N124        C132   1.350       .  A
N125        C130   1.356       .  A
N125        C129   1.355       .  A
N125        H156   1.036       .  S
N126        C133   1.351       .  A
N126        C134   1.352       .  A
C127        C135   1.385       .  A
C127        C143   1.410       .  A
C128        C144   1.413       .  A
C128        C136   1.387       .  A
C129        C137   1.389       .  A
C129        C146   1.423   1_655  A
C130        C145   1.420       .  A
C130        C138   1.386       .  A
C131        C143   1.411       .  A
C131        C139   1.384       .  A
C132        C146   1.416       .  A
C132        C140   1.389       .  A
C133        C141   1.385       .  A
C133        C144   1.413   1_655  A
C134        C142   1.387       .  A
C134        C145   1.416       .  A
C135        C136   1.374       .  A
C135        H147   1.082       .  S
C136        H148   1.082       .  S
C137        C138   1.377       .  A
C137        H149   1.082   1_545  S
C138        H150   1.082       .  S
C139        C140   1.370       .  A
C139        H151   1.082       .  S
C140        H152   1.081   1_545  S
C141        C142   1.375       .  A
C141        H153   1.082       .  S
C142        H154   1.082       .  S
C143        C493   1.486       .  S
C144        C469   1.486       .  S
C145        C445   1.495       .  S
C146        C526   1.488   1_545  S
C157        N158   1.360       .  A
C157        N162   1.357       .  A
C157        C502   1.477       .  S
N158        C159   1.359       .  A
C159        N160   1.358       .  A
C159        C313   1.466       .  S
N160        C161   1.357       .  A
C161        N162   1.354       .  A
C161        C285   1.461       .  S
C163        N164   1.364   1_655  A
C163        N168   1.362       .  A
C163        C478   1.481       .  S
N164        C165   1.361       .  A
C165        N166   1.354   1_455  A
C165        C244   1.468       .  S
N166        C167   1.354       .  A
C167        N168   1.359       .  A
C167        C330   1.464       .  S
C169        N170   1.361       .  A
C169        N174   1.365       .  A
C169        C454   1.494       .  S
N170        C171   1.357       .  A
C171        N172   1.356       .  A
C171        C343   1.467       .  S
N172        C173   1.356       .  A
C173        N174   1.361       .  A
C173        C258   1.469       .  S
C175        N176   1.363   1_655  A
C175        N180   1.356       .  A
C175        C430   1.488       .  S
N176        C177   1.359       .  A
C177        N178   1.358   1_455  A
C177        C246   1.468       .  S
N178        C179   1.357       .  A
C179        N180   1.354       .  A
C179        C328   1.459       .  S
N181        C186   1.351       .  A
N181        C185   1.351       .  A
N181        H213   1.036       .  S
N182        C189   1.351       .  A
N182        C190   1.351       .  A
N183        C188   1.352       .  A
N183        C187   1.353       .  A
N183        H214   1.036       .  S
N184        C191   1.351       .  A
N184        C192   1.351       .  A
C185        C193   1.387       .  A
C185        C201   1.413   1_655  A
C186        C202   1.412       .  A
C186        C194   1.387       .  A
C187        C195   1.386       .  A
C187        C204   1.414       .  A
C188        C203   1.415       .  A
C188        C196   1.387       .  A
C189        C201   1.415       .  A
C189        C197   1.387       .  A
C190        C204   1.412       .  A
C190        C198   1.385       .  A
C191        C199   1.386       .  A
C191        C202   1.413       .  A
C192        C200   1.387       .  A
C192        C203   1.413   1_655  A
C193        C194   1.374       .  A
C193        H205   1.082       .  S
C194        H206   1.082       .  S
C195        C196   1.374       .  A
C195        H207   1.082       .  S
C196        H208   1.082   1_545  S
C197        C198   1.374       .  A
C197        H209   1.082       .  S
C198        H210   1.082       .  S
C199        C200   1.375       .  A
C199        H211   1.082       .  S
C200        H212   1.082   1_545  S
C201        C421   1.488       .  S
C202        C406   1.481       .  S
C203        C373   1.482   1_545  S
C204        C349   1.486       .  S
C215        N216   1.358       .  A
C215        N220   1.363       .  A
C215        C397   1.478       .  S
N216        C217   1.354       .  A
C217        N218   1.355       .  A
C217        C341   1.461       .  S
N218        C219   1.357       .  A
C219        N220   1.361       .  A
C219        C260   1.467       .  S
C221        N222   1.362   1_455  A
C221        N226   1.362       .  A
C221        C382   1.489       .  S
N222        C223   1.357       .  A
C223        N224   1.354   1_655  A
C223        C274   1.463       .  S
N224        C225   1.355       .  A
C225        N226   1.359       .  A
C225        C302   1.466       .  S
C227        N228   1.360       .  A
C227        N232   1.362       .  A
C227        C358   1.486       .  S
N228        C229   1.357       .  A
C229        N230   1.355       .  A
C229        C287   1.463       .  S
N230        C231   1.356       .  A
C231        N232   1.360       .  A
C231        C315   1.466       .  S
O233       Cu241   2.019       .  S
O233        C243   1.278       .  A
O234       Cu969   2.018       .  S
O234        C244   1.277       .  A
O235       Cu969   2.020       .  S
O235        C245   1.278       .  A
O236       Cu241   2.019       .  S
O236        C246   1.279       .  A
O237       Cu242   2.005   1_554  S
O237        C246   1.277       .  A
O238       Cu970   2.002       .  S
O238        C245   1.277       .  A
O239       Cu970   2.007       .  S
O239        C244   1.278       .  A
O240       Cu242   2.004   1_554  S
O240        C243   1.277       .  A
Cu241       O962   2.022   1_554  S
Cu241       O963   2.017   1_554  S
Cu241      Cu242   2.376   1_554  S
Cu242       O966   2.002       .  S
Cu242       O967   2.003       .  S
O247       Cu255   2.029       .  S
O247        C257   1.280       .  A
O248       Cu983   2.027       .  S
O248        C258   1.279       .  A
O249       Cu983   2.022       .  S
O249        C259   1.278       .  A
O250       Cu255   2.021       .  S
O250        C260   1.278       .  A
O251       Cu256   2.002       .  S
O251        C260   1.277       .  A
O252       Cu984   2.008       .  S
O252        C259   1.278       .  A
O253       Cu984   2.002       .  S
O253        C258   1.277       .  A
O254       Cu256   2.008       .  S
O254        C257   1.277       .  A
Cu255       O976   2.027   1_554  S
Cu255       O977   2.017   1_554  S
Cu255      Cu256   2.376       .  S
Cu256       O980   2.002   1_554  S
Cu256       O981   2.006   1_554  S
O261       Cu997   2.015   1_554  S
O261        C271   1.277       .  A
O262       Cu269   2.022       .  S
O262        C272   1.279       .  A
O263       Cu269   2.025       .  S
O263        C273   1.279       .  A
O264       Cu997   2.019   1_554  S
O264        C274   1.278       .  A
O265       Cu270   1.995       .  S
O265        C274   1.276       .  A
O266       Cu998   2.009       .  S
O266        C273   1.278       .  A
O267       Cu998   2.006       .  S
O267        C272   1.276       .  A
O268       Cu270   2.003       .  S
O268        C271   1.277       .  A
Cu269       O989   2.019       .  S
Cu269       O992   2.025       .  S
Cu269      Cu998   2.375       .  S
Cu270       O994   1.994   1_554  S
Cu270       O995   1.998   1_554  S
Cu270      Cu997   2.378   1_554  S
O275      Cu1011   2.013       .  S
O275        C285   1.279       .  A
O276       Cu283   2.013   1_565  S
O276        C286   1.278   1_565  A
O277       Cu283   2.011       .  S
O277        C287   1.278       .  A
O278      Cu1011   2.016   1_565  S
O278        C288   1.278   1_565  A
O279      Cu1012   2.002       .  S
O279        C288   1.277       .  A
O280       Cu284   2.004       .  S
O280        C287   1.277       .  A
O281       Cu284   2.006       .  S
O281        C286   1.277       .  A
O282      Cu1012   1.996       .  S
O282        C285   1.275       .  A
Cu283      O1003   2.009   1_554  S
Cu283      O1006   2.011   1_544  S
Cu283      Cu284   2.378       .  S
Cu284      O1007   2.002   1_554  S
Cu284      O1010   2.003   1_554  S
O289       Cu297   2.022       .  S
O289        C299   1.279       .  A
O290       Cu297   2.021       .  S
O290        C300   1.279       .  A
O291       Cu297   2.016       .  S
O291        C301   1.278       .  A
O292       Cu297   2.019       .  S
O292        C302   1.278       .  A
O293       Cu298   2.001       .  S
O293        C302   1.277       .  A
O294       Cu298   2.001       .  S
O294        C301   1.276       .  A
O295       Cu298   2.006       .  S
O295        C300   1.277       .  A
O296       Cu298   2.006       .  S
O296        C299   1.277       .  A
Cu297      Cu298   2.376       .  S
O303       Cu311   2.021       .  S
O303        C313   1.279       .  A
O304       Cu311   2.020       .  S
O304        C314   1.279       .  A
O305       Cu311   2.018       .  S
O305        C315   1.278       .  A
O306       Cu311   2.018       .  S
O306        C316   1.278       .  A
O307       Cu312   2.003       .  S
O307        C316   1.277       .  A
O308       Cu312   2.002       .  S
O308        C315   1.277       .  A
O309       Cu312   1.998       .  S
O309        C314   1.276       .  A
O310       Cu312   1.999       .  S
O310        C313   1.276       .  A
Cu311      Cu312   2.377       .  S
O317       Cu325   1.999       .  S
O317        C327   1.276       .  A
O318       Cu325   1.995       .  S
O318        C328   1.275       .  A
O319       Cu325   2.000       .  S
O319        C329   1.277       .  A
O320       Cu325   2.003       .  S
O320        C330   1.278       .  A
O321       Cu326   2.015       .  S
O321        C330   1.277       .  A
O322       Cu326   2.011       .  S
O322        C329   1.277       .  A
O323       Cu326   2.012       .  S
O323        C328   1.278       .  A
O324       Cu326   2.019       .  S
O324        C327   1.279       .  A
Cu325      Cu326   2.378       .  S
O331       Cu339   1.998       .  S
O331        C341   1.276       .  A
O332       Cu339   1.997       .  S
O332        C342   1.276       .  A
O333       Cu339   2.003       .  S
O333        C343   1.277       .  A
O334       Cu339   2.004       .  S
O334        C344   1.277       .  A
O335       Cu340   2.020   1_565  S
O335        C344   1.278   1_565  A
O336       Cu340   2.019       .  S
O336        C343   1.279       .  A
O337       Cu340   2.007   1_565  S
O337        C342   1.277   1_565  A
O338       Cu340   2.011       .  S
O338        C341   1.278       .  A
Cu339      Cu340   2.378       .  S
C345        C346   1.403       .  A
C345        C350   1.400       .  A
C345        H355   1.084       .  S
C346        C351   1.479       .  S
C346        C347   1.412       .  A
C347        C348   1.399       .  A
C347        S352   1.804       .  S
C348        C349   1.403       .  A
C348        H353   1.084       .  S
C349        C350   1.412       .  A
C350        S354   1.803       .  S
C351        C356   1.407       .  A
C351        C360   1.401       .  A
S352        H368   1.405       .  S
S354        H365   1.405       .  S
C356        C357   1.402       .  A
C356        S361   1.807       .  S
C357        C358   1.407       .  A
C357        H362   1.082       .  S
C358        C359   1.417       .  A
C359        C360   1.401       .  A
C359        S363   1.802       .  S
C360        H364   1.084       .  S
S361        H366   1.407       .  S
S363        H367   1.407       .  S
C369        C370   1.404       .  A
C369        C374   1.400       .  A
C369        H379   1.084       .  S
C370        C375   1.478       .  S
C370        C371   1.413       .  A
C371        C372   1.396       .  A
C371        S376   1.804       .  S
C372        C373   1.401       .  A
C372        H377   1.083       .  S
C373        C374   1.413       .  A
C374        S378   1.806       .  S
C375        C380   1.407   1_455  A
C375        C384   1.401       .  A
S376        H392   1.405   1_455  S
S378        H389   1.404   1_565  S
C380        C381   1.402       .  A
C380        S385   1.807       .  S
C381        C382   1.408   1_655  A
C381        H386   1.082       .  S
C382        C383   1.419       .  A
C383        C384   1.400       .  A
C383        S387   1.802       .  S
C384        H388   1.084       .  S
S385        H390   1.406       .  S
S387        H391   1.407       .  S
C393        C394   1.401       .  A
C393        C398   1.397       .  A
C393        H403   1.084       .  S
C394        C399   1.479       .  S
C394        C395   1.413       .  A
C395        C396   1.401       .  A
C395        S400   1.804       .  S
C396        C397   1.404       .  A
C396        H401   1.084       .  S
C397        C398   1.415       .  A
C398        S402   1.804       .  S
C399        C404   1.411       .  A
C399        C408   1.401       .  A
S400        H416   1.406       .  S
S402        H413   1.407       .  S
C404        C405   1.404       .  A
C404        S409   1.807       .  S
C405        C406   1.403       .  A
C405        H410   1.083       .  S
C406        C407   1.411       .  A
C407        C408   1.396       .  A
C407        S411   1.804       .  S
C408        H412   1.083       .  S
S409        H414   1.407       .  S
S411        H415   1.404       .  S
C417        C418   1.402       .  A
C417        C422   1.396       .  A
C417        H427   1.084       .  S
C418        C423   1.480       .  S
C418        C419   1.414   1_655  A
C419        C420   1.399       .  A
C419        S424   1.804       .  S
C420        C421   1.404       .  A
C420        H425   1.084       .  S
C421        C422   1.415   1_455  A
C422        S426   1.805       .  S
C423        C428   1.410   1_655  A
C423        C432   1.400       .  A
S424        H440   1.406       .  S
S426        H437   1.406       .  S
C428        C429   1.400       .  A
C428        S433   1.809       .  S
C429        C430   1.407   1_455  A
C429        H434   1.082       .  S
C430        C431   1.422       .  A
C431        C432   1.398       .  A
C431        S435   1.805       .  S
C432        H436   1.083       .  S
S433        H438   1.407       .  S
S435        H439   1.407   1_655  S
C441        C442   1.403       .  A
C441        C446   1.401       .  A
C441        H451   1.084       .  S
C442        C447   1.483       .  S
C442        C443   1.414       .  A
C443        C444   1.403       .  A
C443        S448   1.807       .  S
C444        C445   1.404       .  A
C444        H449   1.084       .  S
C445        C446   1.415       .  A
C446        S450   1.805       .  S
C447        C452   1.408       .  A
C447        C456   1.400       .  A
S448        H464   1.403       .  S
S450        H461   1.406       .  S
C452        C453   1.405       .  A
C452        S457   1.806       .  S
C453        C454   1.408       .  A
C453        H458   1.082       .  S
C454        C455   1.421       .  A
C455        C456   1.402       .  A
C455        S459   1.803       .  S
C456        H460   1.084       .  S
S457        H462   1.407       .  S
S459        H463   1.408       .  S
C465        C466   1.404       .  A
C465        C470   1.400       .  A
C465        H475   1.083       .  S
C466        C471   1.484   1_455  S
C466        C467   1.414   1_455  A
C467        C468   1.400       .  A
C467        S472   1.805       .  S
C468        C469   1.403   1_655  A
C468        H473   1.084       .  S
C469        C470   1.413       .  A
C470        S474   1.806       .  S
C471        C476   1.411       .  A
C471        C480   1.403   1_655  A
S472        H488   1.405       .  S
S474        H485   1.404       .  S
C476        C477   1.405       .  A
C476        S481   1.807       .  S
C477        C478   1.404       .  A
C477        H482   1.083       .  S
C478        C479   1.413   1_655  A
C479        C480   1.401       .  A
C479        S483   1.802       .  S
C480        H484   1.084       .  S
S481        H486   1.406       .  S
S483        H487   1.407       .  S
C489        C490   1.402       .  A
C489        C494   1.398       .  A
C489        H499   1.084       .  S
C490        C495   1.477       .  S
C490        C491   1.411       .  A
C491        C492   1.398       .  A
C491        S496   1.804       .  S
C492        C493   1.402       .  A
C492        H497   1.084       .  S
C493        C494   1.413       .  A
C494        S498   1.804       .  S
C495        C500   1.407       .  A
C495        C504   1.402       .  A
S496        H512   1.407       .  S
S498        H509   1.406       .  S
C500        C501   1.400       .  A
C500        S505   1.807       .  S
C501        C502   1.406       .  A
C501        H506   1.083       .  S
C502        C503   1.414       .  A
C503        C504   1.399       .  A
C503        S507   1.803       .  S
C504        H508   1.084       .  S
S505        H510   1.407       .  S
S507        H511   1.407       .  S
C513        C514   1.402       .  A
C513        C518   1.401       .  A
C513        H523   1.084       .  S
C514        C519   1.475       .  S
C514        C515   1.411   1_455  A
C515        C516   1.398       .  A
C515        S520   1.806       .  S
C516        C517   1.405   1_655  A
C516        H521   1.084       .  S
C517        C518   1.416       .  A
C518        S522   1.803       .  S
C519        C524   1.407       .  A
C519        C528   1.401       .  A
S520        H536   1.403       .  S
S522        H533   1.407       .  S
C524        C525   1.399       .  A
C524        S529   1.806       .  S
C525        C526   1.403       .  A
C525        H530   1.080       .  S
C526        C527   1.415       .  A
C527        C528   1.400       .  A
C527        S531   1.805   1_455  S
C528        H532   1.083       .  S
S529        H534   1.407       .  S
S531        H535   1.405   1_665  S
C537        C538   1.403       .  A
C537        C542   1.399       .  A
C537        H547   1.080       .  S
C538        C543   1.489       .  S
C538        C539   1.415       .  A
C539        C540   1.401       .  A
C539        S544   1.806       .  S
C540        C541   1.408       .  A
C540        H545   1.084       .  S
C541        C542   1.416       .  A
C542        S546   1.803       .  S
C543        C548   1.414       .  A
C543        C552   1.405       .  A
S544        H560   1.406       .  S
S546        H557   1.408       .  S
C548        C549   1.402       .  A
C548        S553   1.808       .  S
C549        C550   1.404       .  A
C549        H554   1.083       .  S
C550        C551   1.413       .  A
C551        C552   1.399       .  A
C551        S555   1.805       .  S
C552        H556   1.084       .  S
S553        H558   1.407       .  S
S555        H559   1.406       .  S
C561        C562   1.404       .  A
C561        C566   1.399       .  A
C561        H571   1.084       .  S
C562        C567   1.486       .  S
C562        C563   1.415       .  A
C563        C564   1.399       .  A
C563        S568   1.803       .  S
C564        C565   1.402       .  A
C564        H569   1.084       .  S
C565        C566   1.415       .  A
C566        S570   1.807       .  S
C567        C572   1.412       .  A
C567        C576   1.402       .  A
S568        H584   1.406       .  S
S570        H581   1.405       .  S
C572        C573   1.407       .  A
C572        S577   1.807       .  S
C573        C574   1.404       .  A
C573        H578   1.083       .  S
C574        C575   1.413       .  A
C575        C576   1.399       .  A
C575        S579   1.803       .  S
C576        H580   1.084       .  S
S577        H582   1.406       .  S
S579        H583   1.407       .  S
C585        C586   1.400       .  A
C585        C590   1.402       .  A
C585        H595   1.084       .  S
C586        C591   1.479       .  S
C586        C587   1.407       .  A
C587        C588   1.396       .  A
C587        S592   1.804       .  S
C588        C589   1.411       .  A
C588        H593   1.083       .  S
C589        C590   1.424       .  A
C590        S594   1.801       .  S
C591        C596   1.409       .  A
C591        C600   1.403       .  A
S592        H608   1.406       .  S
S594        H605   1.408       .  S
C596        C597   1.402       .  A
C596        S601   1.806       .  S
C597        C598   1.405       .  A
C597        H602   1.083       .  S
C598        C599   1.412       .  A
C599        C600   1.398       .  A
C599        S603   1.804       .  S
C600        H604   1.084       .  S
S601        H606   1.407       .  S
S603        H607   1.406       .  S
C609        C610   1.403       .  A
C609        C614   1.398       .  A
C609        H619   1.084       .  S
C610        C615   1.481       .  S
C610        C611   1.413       .  A
C611        C612   1.398       .  A
C611        S616   1.804       .  S
C612        C613   1.403       .  A
C612        H617   1.084       .  S
C613        C614   1.414       .  A
C614        S618   1.803       .  S
C615        C620   1.411       .  A
C615        C624   1.404       .  A
S616        H632   1.406       .  S
S618        H629   1.406       .  S
C620        C621   1.401       .  A
C620        S625   1.808       .  S
C621        C622   1.402       .  A
C621        H626   1.083       .  S
C622        C623   1.412       .  A
C623        C624   1.397       .  A
C623        S627   1.806       .  S
C624        H628   1.084       .  S
S625        H630   1.407       .  S
S627        H631   1.405       .  S
C633        C634   1.404       .  A
C633        C638   1.402       .  A
C633        H643   1.084       .  S
C634        C639   1.488       .  S
C634        C635   1.416       .  A
C635        C636   1.400       .  A
C635        S640   1.802       .  S
C636        C637   1.402       .  A
C636        H641   1.084       .  S
C637        C638   1.414       .  A
C638        S642   1.802       .  S
C639        C644   1.411       .  A
C639        C648   1.404       .  A
S640        H656   1.406       .  S
S642        H653   1.406       .  S
C644        C645   1.404       .  A
C644        S649   1.806       .  S
C645        C646   1.403       .  A
C645        H650   1.083       .  S
C646        C647   1.414       .  A
C647        C648   1.403       .  A
C647        S651   1.803       .  S
C648        H652   1.084       .  S
S649        H654   1.407       .  S
S651        H655   1.407       .  S
C657        C658   1.403       .  A
C657        C662   1.401       .  A
C657        H667   1.084       .  S
C658        C663   1.487       .  S
C658        C659   1.413       .  A
C659        C660   1.401       .  A
C659        S664   1.804       .  S
C660        C661   1.405       .  A
C660        H665   1.084       .  S
C661        C662   1.417       .  A
C662        S666   1.803       .  S
C663        C668   1.411       .  A
C663        C672   1.404       .  A
S664        H680   1.405       .  S
S666        H677   1.407       .  S
C668        C669   1.404       .  A
C668        S673   1.807       .  S
C669        C670   1.405       .  A
C669        H674   1.083       .  S
C670        C671   1.415       .  A
C671        C672   1.401       .  A
C671        S675   1.806       .  S
C672        H676   1.084       .  S
S673        H678   1.407       .  S
S675        H679   1.403       .  S
C681        C682   1.402       .  A
C681        C686   1.400       .  A
C681        H691   1.084       .  S
C682        C687   1.481       .  S
C682        C683   1.413       .  A
C683        C684   1.400       .  A
C683        S688   1.804       .  S
C684        C685   1.402       .  A
C684        H689   1.084       .  S
C685        C686   1.413       .  A
C686        S690   1.803       .  S
C687        C692   1.410       .  A
C687        C696   1.403       .  A
S688        H704   1.406       .  S
S690        H701   1.407       .  S
C692        C693   1.401       .  A
C692        S697   1.806       .  S
C693        C694   1.402       .  A
C693        H698   1.083       .  S
C694        C695   1.415       .  A
C695        C696   1.401       .  A
C695        S699   1.806       .  S
C696        H700   1.083       .  S
S697        H702   1.407       .  S
S699        H703   1.405       .  S
C705        C706   1.401       .  A
C705        C710   1.400       .  A
C705        H715   1.084       .  S
C706        C711   1.480       .  S
C706        C707   1.410       .  A
C707        C708   1.400       .  A
C707        S712   1.805       .  S
C708        C709   1.408       .  A
C708        H713   1.084       .  S
C709        C710   1.417       .  A
C710        S714   1.802       .  S
C711        C716   1.409       .  A
C711        C720   1.403       .  A
S712        H728   1.406       .  S
S714        H725   1.408       .  S
C716        C717   1.401       .  A
C716        S721   1.807       .  S
C717        C718   1.405       .  A
C717        H722   1.083       .  S
C718        C719   1.415       .  A
C719        C720   1.399       .  A
C719        S723   1.807       .  S
C720        H724   1.084       .  S
S721        H726   1.407       .  S
S723        H727   1.404       .  S
C729        N730   1.361       .  A
C729        N734   1.361       .  A
C729       C1437   1.479       .  S
N730        C731   1.357       .  A
C731        N732   1.356       .  A
C731        C985   1.466       .  S
N732        C733   1.357       .  A
C733        N734   1.358       .  A
C733       C1042   1.465       .  S
N735        C740   1.350       .  A
N735        C739   1.351       .  A
N735        H767   1.041       .  S
N736        C743   1.351       .  A
N736        C744   1.349       .  A
N737        C742   1.352       .  A
N737        C741   1.352       .  A
N737        H768   1.042       .  S
N738        C745   1.351       .  A
N738        C746   1.351       .  A
C739        C747   1.387       .  A
C739        C755   1.411       .  A
C740        C756   1.412       .  A
C740        C748   1.388       .  A
C741        C749   1.388       .  A
C741        C758   1.414       .  A
C742        C757   1.414       .  A
C742        C750   1.387       .  A
C743        C755   1.411       .  A
C743        C751   1.386       .  A
C744        C758   1.412       .  A
C744        C752   1.387       .  A
C745        C753   1.386       .  A
C745        C756   1.412       .  A
C746        C754   1.386       .  A
C746        C757   1.413       .  A
C747        C748   1.375       .  A
C747        H759   1.083       .  S
C748        H760   1.082       .  S
C749        C750   1.375       .  A
C749        H761   1.082       .  S
C750        H762   1.082       .  S
C751        C752   1.373       .  A
C751        H763   1.082       .  S
C752        H764   1.082       .  S
C753        C754   1.373       .  A
C753        H765   1.082       .  S
C754        H766   1.082       .  S
C755       C1422   1.482       .  S
C756       C1398   1.481       .  S
C757       C1365   1.489       .  S
C758       C1446   1.483       .  S
C769        N770   1.358       .  A
C769        N774   1.362       .  A
C769       C1413   1.472       .  S
N770        C771   1.356       .  A
C771        N772   1.357       .  A
C771        C999   1.466       .  S
N772        C773   1.359       .  A
C773        N774   1.359       .  A
C773       C1057   1.471       .  S
C775        N776   1.363       .  A
C775        N780   1.360       .  A
C775       C1389   1.483       .  S
N776        C777   1.360       .  A
C777        N778   1.355   1_565  A
C777       C1072   1.464   1_565  S
N778        C779   1.354   1_545  A
C779        N780   1.356       .  A
C779       C1014   1.462   1_565  S
C781        N782   1.363       .  A
C781        N786   1.358       .  A
C781       C1374   1.476       .  S
N782        C783   1.361       .  A
C783        N784   1.358       .  A
C783       C1027   1.469       .  S
N784        C785   1.355       .  A
C785        N786   1.356       .  A
C785        C971   1.462       .  S
C787        N788   1.359       .  A
C787        N792   1.362       .  A
C787       C1341   1.474       .  S
N788        C789   1.357       .  A
C789        N790   1.355   1_565  A
C789       C1016   1.463   1_565  S
N790        C791   1.356   1_545  A
C791        N792   1.359       .  A
C791       C1070   1.466   1_565  S
N793        C798   1.352       .  A
N793        C797   1.351       .  A
N793        H825   1.038       .  S
N794        C801   1.351       .  A
N794        C802   1.352       .  A
N795        C800   1.352       .  A
N795        C799   1.352       .  A
N795        H826   1.038       .  S
N796        C803   1.351       .  A
N796        C804   1.349       .  A
C797        C805   1.387       .  A
C797        C813   1.414       .  A
C798        C814   1.413       .  A
C798        C806   1.386       .  A
C799        C807   1.387       .  A
C799        C816   1.415       .  A
C800        C815   1.415       .  A
C800        C808   1.387       .  A
C801        C813   1.414       .  A
C801        C809   1.387       .  A
C802        C816   1.413       .  A
C802        C810   1.386       .  A
C803        C811   1.385       .  A
C803        C814   1.411       .  A
C804        C812   1.387       .  A
C804        C815   1.413       .  A
C805        C806   1.376       .  A
C805        H817   1.082       .  S
C806        H818   1.082       .  S
C807        C808   1.378       .  A
C807        H819   1.082       .  S
C808        H820   1.082       .  S
C809        C810   1.373       .  A
C809        H821   1.082       .  S
C810        H822   1.082       .  S
C811        C812   1.373       .  A
C811        H823   1.082       .  S
C812        H824   1.082       .  S
C813       C1326   1.488       .  S
C814       C1293   1.488       .  S
C815       C1278   1.487       .  S
C816       C1350   1.490       .  S
C827        N828   1.365       .  A
C827        N832   1.360       .  A
C827       C1317   1.494       .  S
N828        C829   1.360       .  A
C829        N830   1.356       .  A
C829       C1029   1.471       .  S
N830        C831   1.355       .  A
C831        N832   1.357       .  A
C831        C973   1.464       .  S
C833        N834   1.357       .  A
C833        N838   1.362       .  A
C833       C1302   1.477       .  S
N834        C835   1.354       .  A
C835        N836   1.357       .  A
C835        C987   1.465       .  S
N836        C837   1.360       .  A
C837        N838   1.361       .  A
C837       C1044   1.471       .  S
C839        N840   1.356       .  A
C839        N844   1.366       .  A
C839       C1269   1.488       .  S
N840        C841   1.351       .  A
C841        N842   1.353       .  A
C841       C1001   1.458       .  S
N842        C843   1.357       .  A
C843        N844   1.364       .  A
C843       C1055   1.471       .  S
C845        N846   1.361       .  A
C845        N850   1.359   1_455  A
C845       C1245   1.491       .  S
N846        C847   1.360       .  A
C847        N848   1.356       .  A
C847       C1028   1.465       .  S
N848        C849   1.355   1_455  A
C849        N850   1.355       .  A
C849       C1000   1.461       .  S
N851        C856   1.353       .  A
N851        C855   1.353       .  A
N851        H883   1.036       .  S
N852        C859   1.351       .  A
N852        C860   1.351       .  A
N853        C858   1.353       .  A
N853        C857   1.353       .  A
N853        H884   1.036       .  S
N854        C861   1.353       .  A
N854        C862   1.353       .  A
C855        C863   1.386       .  A
C855        C871   1.416       .  A
C856        C872   1.417       .  A
C856        C864   1.387       .  A
C857        C865   1.387       .  A
C857        C874   1.416   1_655  A
C858        C873   1.416       .  A
C858        C866   1.387       .  A
C859        C871   1.412       .  A
C859        C867   1.386       .  A
C860        C874   1.414       .  A
C860        C868   1.387       .  A
C861        C869   1.387       .  A
C861        C872   1.417   1_655  A
C862        C870   1.386       .  A
C862        C873   1.416       .  A
C863        C864   1.375       .  A
C863        H875   1.082       .  S
C864        H876   1.082       .  S
C865        C866   1.376       .  A
C865        H877   1.082   1_545  S
C866        H878   1.082       .  S
C867        C868   1.372       .  A
C867        H879   1.082       .  S
C868        H880   1.082   1_545  S
C869        C870   1.374       .  A
C869        H881   1.082       .  S
C870        H882   1.082       .  S
C871       C1221   1.487       .  S
C872       C1197   1.489       .  S
C873       C1173   1.489       .  S
C874       C1254   1.489   1_545  S
C885        N886   1.359       .  A
C885        N890   1.359       .  A
C885       C1230   1.473       .  S
N886        C887   1.356       .  A
C887        N888   1.356       .  A
C887       C1041   1.462       .  S
N888        C889   1.356       .  A
C889        N890   1.358       .  A
C889       C1013   1.463       .  S
C891        N892   1.361       .  A
C891        N896   1.362   1_455  A
C891       C1206   1.486       .  S
N892        C893   1.358       .  A
C893        N894   1.357   1_455  A
C893        C972   1.469       .  S
N894        C895   1.357       .  A
C895        N896   1.359       .  A
C895       C1058   1.468       .  S
C897        N898   1.360       .  A
C897        N902   1.363       .  A
C897       C1182   1.484       .  S
N898        C899   1.357       .  A
C899        N900   1.357       .  A
C899       C1071   1.468       .  S
N900        C901   1.358       .  A
C901        N902   1.361       .  A
C901        C986   1.470       .  S
C903        N904   1.359   1_655  A
C903        N908   1.361       .  A
C903       C1158   1.489       .  S
N904        C905   1.354       .  A
C905        N906   1.357   1_455  A
C905        C974   1.464       .  S
N906        C907   1.358       .  A
C907        N908   1.361       .  A
C907       C1056   1.466       .  S
N909        C914   1.353       .  A
N909        C913   1.354       .  A
N909        H941   1.038       .  S
N910        C917   1.352       .  A
N910        C918   1.352       .  A
N911        C916   1.355       .  A
N911        C915   1.355       .  A
N911        H942   1.033       .  S
N912        C919   1.352       .  A
N912        C920   1.352       .  A
C913        C921   1.388       .  A
C913        C929   1.418       .  A
C914        C930   1.413       .  A
C914        C922   1.385       .  A
C915        C923   1.386       .  A
C915        C932   1.420       .  A
C916        C931   1.422   1_455  A
C916        C924   1.388       .  A
C917        C929   1.418   1_455  A
C917        C925   1.387       .  A
C918        C932   1.416       .  A
C918        C926   1.386       .  A
C919        C927   1.385       .  A
C919        C930   1.413       .  A
C920        C928   1.388       .  A
C920        C931   1.418       .  A
C921        C922   1.374       .  A
C921        H933   1.082       .  S
C922        H934   1.083       .  S
C923        C924   1.374       .  A
C923        H935   1.082       .  S
C924        H936   1.081   1_545  S
C925        C926   1.372       .  A
C925        H937   1.082       .  S
C926        H938   1.082       .  S
C927        C928   1.368       .  A
C927        H939   1.082       .  S
C928        H940   1.082   1_545  S
C929       C1149   1.496       .  S
C930       C1134   1.488       .  S
C931       C1101   1.491   1_545  S
C932       C1077   1.492       .  S
C943        N944   1.359       .  A
C943        N948   1.358       .  A
C943       C1125   1.473       .  S
N944        C945   1.358       .  A
C945        N946   1.359       .  A
C945       C1069   1.467       .  S
N946        C947   1.357       .  A
C947        N948   1.358       .  A
C947        C988   1.466       .  S
C949        N950   1.363   1_455  A
C949        N954   1.361       .  A
C949       C1110   1.486       .  S
N950        C951   1.360       .  A
C951        N952   1.357   1_655  A
C951       C1002   1.472       .  S
N952        C953   1.356       .  A
C953        N954   1.358       .  A
C953       C1030   1.466       .  S
C955        N956   1.362       .  A
C955        N960   1.365       .  A
C955       C1086   1.488       .  S
N956        C957   1.359       .  A
C957        N958   1.355       .  A
C957       C1015   1.470       .  S
N958        C959   1.357       .  A
C959        N960   1.362       .  A
C959       C1043   1.472       .  S
O961       Cu969   2.010       .  S
O961        C971   1.277       .  A
O962        C972   1.279       .  A
O963        C973   1.278       .  A
O964       Cu969   2.016       .  S
O964        C974   1.279       .  A
O965       Cu970   2.000       .  S
O965        C974   1.276       .  A
O966        C973   1.277       .  A
O967        C972   1.277       .  A
O968       Cu970   2.006       .  S
O968        C971   1.277       .  A
Cu969      Cu970   2.377       .  S
O975       Cu983   2.024       .  S
O975        C985   1.279       .  A
O976        C986   1.279       .  A
O977        C987   1.279       .  A
O978       Cu983   2.014       .  S
O978        C988   1.278       .  A
O979       Cu984   2.007       .  S
O979        C988   1.277       .  A
O980        C987   1.276       .  A
O981        C986   1.277       .  A
O982       Cu984   1.999       .  S
O982        C985   1.276       .  A
Cu983      Cu984   2.376       .  S
O989        C999   1.279       .  A
O990       Cu997   2.008       .  S
O990       C1000   1.278       .  A
O991       Cu997   2.012       .  S
O991       C1001   1.278       .  A
O992       C1002   1.279       .  A
O993       Cu998   2.009       .  S
O993       C1002   1.278       .  A
O994       C1001   1.275       .  A
O995       C1000   1.276       .  A
O996       Cu998   2.003       .  S
O996        C999   1.276       .  A
O1003      C1013   1.277       .  A
O1004     Cu1011   2.015   1_565  S
O1004      C1014   1.278   1_565  A
O1005     Cu1011   2.021       .  S
O1005      C1015   1.278       .  A
O1006      C1016   1.277   1_565  A
O1007      C1016   1.277       .  A
O1008     Cu1012   2.008       .  S
O1008      C1015   1.278       .  A
O1009     Cu1012   1.995       .  S
O1009      C1014   1.276       .  A
O1010      C1013   1.277       .  A
Cu1011    Cu1012   2.377       .  S
O1017     Cu1025   2.025       .  S
O1017      C1027   1.279       .  A
O1018     Cu1025   2.016       .  S
O1018      C1028   1.278       .  A
O1019     Cu1025   2.026       .  S
O1019      C1029   1.279       .  A
O1020     Cu1025   2.020       .  S
O1020      C1030   1.279       .  A
O1021     Cu1026   2.001       .  S
O1021      C1030   1.276       .  A
O1022     Cu1026   2.003       .  S
O1022      C1029   1.277       .  A
O1023     Cu1026   2.002       .  S
O1023      C1028   1.277       .  A
O1024     Cu1026   2.001       .  S
O1024      C1027   1.277       .  A
Cu1025    Cu1026   2.376       .  S
O1031     Cu1039   2.015       .  S
O1031      C1041   1.278       .  A
O1032     Cu1039   2.021       .  S
O1032      C1042   1.279       .  A
O1033     Cu1039   2.029       .  S
O1033      C1043   1.279       .  A
O1034     Cu1039   2.027       .  S
O1034      C1044   1.279       .  A
O1035     Cu1040   2.005       .  S
O1035      C1044   1.277       .  A
O1036     Cu1040   2.005       .  S
O1036      C1043   1.278       .  A
O1037     Cu1040   1.998       .  S
O1037      C1042   1.276       .  A
O1038     Cu1040   1.995       .  S
O1038      C1041   1.275       .  A
Cu1039    Cu1040   2.376       .  S
O1045     Cu1053   2.004       .  S
O1045      C1055   1.278       .  A
O1046     Cu1053   2.004       .  S
O1046      C1056   1.277       .  A
O1047     Cu1053   1.997       .  S
O1047      C1057   1.276       .  A
O1048     Cu1053   1.999       .  S
O1048      C1058   1.276       .  A
O1049     Cu1054   2.029       .  S
O1049      C1058   1.280       .  A
O1050     Cu1054   2.033       .  S
O1050      C1057   1.280       .  A
O1051     Cu1054   2.017       .  S
O1051      C1056   1.278       .  A
O1052     Cu1054   2.025       .  S
O1052      C1055   1.278       .  A
Cu1053    Cu1054   2.376       .  S
O1059     Cu1067   1.997       .  S
O1059      C1069   1.276       .  A
O1060     Cu1067   1.996       .  S
O1060      C1070   1.276       .  A
O1061     Cu1067   2.006       .  S
O1061      C1071   1.277       .  A
O1062     Cu1067   2.001       .  S
O1062      C1072   1.277       .  A
O1063     Cu1068   2.016   1_565  S
O1063      C1072   1.277   1_565  A
O1064     Cu1068   2.017       .  S
O1064      C1071   1.279       .  A
O1065     Cu1068   2.023   1_565  S
O1065      C1070   1.279   1_565  A
O1066     Cu1068   2.024       .  S
O1066      C1069   1.280       .  A
Cu1067    Cu1068   2.377       .  S
C1073      C1074   1.406       .  A
C1073      C1078   1.402       .  A
C1073      H1083   1.083       .  S
C1074      C1079   1.491       .  S
C1074      C1075   1.414       .  A
C1075      C1076   1.402       .  A
C1075      S1080   1.803       .  S
C1076      C1077   1.404       .  A
C1076      H1081   1.084       .  S
C1077      C1078   1.413       .  A
C1078      S1082   1.804       .  S
C1079      C1084   1.411       .  A
C1079      C1088   1.405       .  A
S1080      H1096   1.406       .  S
S1082      H1093   1.405       .  S
C1084      C1085   1.405       .  A
C1084      S1089   1.807       .  S
C1085      C1086   1.406       .  A
C1085      H1090   1.083       .  S
C1086      C1087   1.416       .  A
C1087      C1088   1.403       .  A
C1087      S1091   1.802       .  S
C1088      H1092   1.084       .  S
S1089      H1094   1.407       .  S
S1091      H1095   1.407       .  S
C1097      C1098   1.404       .  A
C1097      C1102   1.398       .  A
C1097      H1107   1.084       .  S
C1098      C1103   1.485       .  S
C1098      C1099   1.414   1_655  A
C1099      C1100   1.400       .  A
C1099      S1104   1.802       .  S
C1100      C1101   1.404   1_455  A
C1100      H1105   1.084       .  S
C1101      C1102   1.414       .  A
C1102      S1106   1.804       .  S
C1103      C1108   1.410       .  A
C1103      C1112   1.402   1_655  A
S1104      H1120   1.406   1_455  S
S1106      H1117   1.406   1_565  S
C1108      C1109   1.404       .  A
C1108      S1113   1.807       .  S
C1109      C1110   1.406   1_655  A
C1109      H1114   1.083       .  S
C1110      C1111   1.417       .  A
C1111      C1112   1.400       .  A
C1111      S1115   1.802       .  S
C1112      H1116   1.084       .  S
S1113      H1118   1.406       .  S
S1115      H1119   1.407       .  S
C1121      C1122   1.402       .  A
C1121      C1126   1.399       .  A
C1121      H1131   1.084       .  S
C1122      C1127   1.477       .  S
C1122      C1123   1.411       .  A
C1123      C1124   1.399       .  A
C1123      S1128   1.805       .  S
C1124      C1125   1.403       .  A
C1124      H1129   1.084       .  S
C1125      C1126   1.413       .  A
C1126      S1130   1.804       .  S
C1127      C1132   1.408       .  A
C1127      C1136   1.401       .  A
S1128      H1144   1.405       .  S
S1130      H1141   1.407       .  S
C1132      C1133   1.401       .  A
C1132      S1137   1.805       .  S
C1133      C1134   1.404       .  A
C1133      H1138   1.082       .  S
C1134      C1135   1.414       .  A
C1135      C1136   1.398       .  A
C1135      S1139   1.804       .  S
C1136      H1140   1.084       .  S
S1137      H1142   1.406       .  S
S1139      H1143   1.406       .  S
C1145      C1146   1.404   1_655  A
C1145      C1150   1.400       .  A
C1145      H1155   1.084       .  S
C1146      C1151   1.483   1_455  S
C1146      C1147   1.412       .  A
C1147      C1148   1.398       .  A
C1147      S1152   1.804       .  S
C1148      C1149   1.406   1_455  A
C1148      H1153   1.084       .  S
C1149      C1150   1.417       .  A
C1150      S1154   1.806       .  S
C1151      C1156   1.408   1_655  A
C1151      C1160   1.403       .  A
S1152      H1168   1.406       .  S
S1154      H1165   1.404       .  S
C1156      C1157   1.400       .  A
C1156      S1161   1.808       .  S
C1157      C1158   1.409   1_455  A
C1157      H1162   1.082       .  S
C1158      C1159   1.419       .  A
C1159      C1160   1.402       .  A
C1159      S1163   1.803       .  S
C1160      H1164   1.084       .  S
S1161      H1166   1.407       .  S
S1163      H1167   1.407   1_655  S
C1169      C1170   1.402       .  A
C1169      C1174   1.401       .  A
C1169      H1179   1.084       .  S
C1170      C1175   1.482       .  S
C1170      C1171   1.412       .  A
C1171      C1172   1.401       .  A
C1171      S1176   1.802       .  S
C1172      C1173   1.402       .  A
C1172      H1177   1.083       .  S
C1173      C1174   1.413       .  A
C1174      S1178   1.804       .  S
C1175      C1180   1.409       .  A
C1175      C1184   1.400       .  A
S1176      H1192   1.405       .  S
S1178      H1189   1.404       .  S
C1180      C1181   1.405       .  A
C1180      S1185   1.806       .  S
C1181      C1182   1.405       .  A
C1181      H1186   1.083       .  S
C1182      C1183   1.418       .  A
C1183      C1184   1.401       .  A
C1183      S1187   1.803       .  S
C1184      H1188   1.084       .  S
S1185      H1190   1.407       .  S
S1187      H1191   1.407       .  S
C1193      C1194   1.403       .  A
C1193      C1198   1.401       .  A
C1193      H1203   1.084       .  S
C1194      C1199   1.482       .  S
C1194      C1195   1.413       .  A
C1195      C1196   1.400       .  A
C1195      S1200   1.803   1_455  S
C1196      C1197   1.404       .  A
C1196      H1201   1.084   1_455  S
C1197      C1198   1.414       .  A
C1198      S1202   1.805       .  S
C1199      C1204   1.409   1_455  A
C1199      C1208   1.401       .  A
S1200      H1216   1.405   1_655  S
S1202      H1213   1.404   1_455  S
C1204      C1205   1.404       .  A
C1204      S1209   1.806       .  S
C1205      C1206   1.406   1_655  A
C1205      H1210   1.083       .  S
C1206      C1207   1.418       .  A
C1207      C1208   1.400       .  A
C1207      S1211   1.803       .  S
C1208      H1212   1.084       .  S
S1209      H1214   1.407       .  S
S1211      H1215   1.407       .  S
C1217      C1218   1.404       .  A
C1217      C1222   1.400       .  A
C1217      H1227   1.083       .  S
C1218      C1223   1.481       .  S
C1218      C1219   1.413       .  A
C1219      C1220   1.398       .  A
C1219      S1224   1.805       .  S
C1220      C1221   1.403       .  A
C1220      H1225   1.084       .  S
C1221      C1222   1.413       .  A
C1222      S1226   1.805       .  S
C1223      C1228   1.411       .  A
C1223      C1232   1.401       .  A
S1224      H1240   1.406       .  S
S1226      H1237   1.405       .  S
C1228      C1229   1.404       .  A
C1228      S1233   1.807       .  S
C1229      C1230   1.404       .  A
C1229      H1234   1.083       .  S
C1230      C1231   1.412       .  A
C1231      C1232   1.397       .  A
C1231      S1235   1.803       .  S
C1232      H1236   1.084       .  S
S1233      H1238   1.407       .  S
S1235      H1239   1.407       .  S
C1241      C1242   1.403       .  A
C1241      C1246   1.404       .  A
C1241      H1251   1.082       .  S
C1242      C1247   1.483       .  S
C1242      C1243   1.411   1_455  A
C1243      C1244   1.397       .  A
C1243      S1248   1.807       .  S
C1244      C1245   1.409   1_655  A
C1244      H1249   1.083       .  S
C1245      C1246   1.419       .  A
C1246      S1250   1.810       .  S
C1247      C1252   1.412       .  A
C1247      C1256   1.403   1_455  A
S1248      H1264   1.405       .  S
S1250      H1261   1.407       .  S
C1252      C1253   1.402       .  A
C1252      S1257   1.807       .  S
C1253      C1254   1.404       .  A
C1253      H1258   1.082       .  S
C1254      C1255   1.413   1_455  A
C1255      C1256   1.398       .  A
C1255      S1259   1.805       .  S
C1256      H1260   1.084       .  S
S1257      H1262   1.407       .  S
S1259      H1263   1.406   1_565  S
C1265      C1266   1.400       .  A
C1265      C1270   1.397       .  A
C1265      H1275   1.082       .  S
C1266      C1271   1.485       .  S
C1266      C1267   1.415       .  A
C1267      C1268   1.401       .  A
C1267      S1272   1.805       .  S
C1268      C1269   1.405       .  A
C1268      H1273   1.083       .  S
C1269      C1270   1.421       .  A
C1270      S1274   1.805       .  S
C1271      C1276   1.412       .  A
C1271      C1280   1.404       .  A
S1272      H1288   1.407       .  S
S1274      H1285   1.408       .  S
C1276      C1277   1.402       .  A
C1276      S1281   1.808       .  S
C1277      C1278   1.404       .  A
C1277      H1282   1.083       .  S
C1278      C1279   1.412       .  A
C1279      C1280   1.398       .  A
C1279      S1283   1.804       .  S
C1280      H1284   1.084       .  S
S1281      H1286   1.407   1_556  S
S1283      H1287   1.406       .  S
C1289      C1290   1.405       .  A
C1289      C1294   1.400       .  A
C1289      H1299   1.084       .  S
C1290      C1295   1.485       .  S
C1290      C1291   1.413       .  A
C1291      C1292   1.398       .  A
C1291      S1296   1.804       .  S
C1292      C1293   1.403       .  A
C1292      H1297   1.084       .  S
C1293      C1294   1.415       .  A
C1294      S1298   1.807       .  S
C1295      C1300   1.411       .  A
C1295      C1304   1.405       .  A
S1296      H1312   1.406       .  S
S1298      H1309   1.404       .  S
C1300      C1301   1.401       .  A
C1300      S1305   1.808       .  S
C1301      C1302   1.404       .  A
C1301      H1306   1.083       .  S
C1302      C1303   1.413       .  A
C1303      C1304   1.401       .  A
C1303      S1307   1.803       .  S
C1304      H1308   1.084       .  S
S1305      H1310   1.407       .  S
S1307      H1311   1.406       .  S
C1313      C1314   1.402       .  A
C1313      C1318   1.401       .  A
C1313      H1323   1.084       .  S
C1314      C1319   1.484       .  S
C1314      C1315   1.412       .  A
C1315      C1316   1.398       .  A
C1315      S1320   1.805       .  S
C1316      C1317   1.408       .  A
C1316      H1321   1.083       .  S
C1317      C1318   1.423       .  A
C1318      S1322   1.804       .  S
C1319      C1324   1.411       .  A
C1319      C1328   1.404       .  A
S1320      H1336   1.407       .  S
S1322      H1333   1.408       .  S
C1324      C1325   1.402       .  A
C1324      S1329   1.806       .  S
C1325      C1326   1.404       .  A
C1325      H1330   1.083       .  S
C1326      C1327   1.413       .  A
C1327      C1328   1.398       .  A
C1327      S1331   1.805       .  S
C1328      H1332   1.084       .  S
S1329      H1334   1.407   1_556  S
S1331      H1335   1.406       .  S
C1337      C1338   1.404       .  A
C1337      C1342   1.400       .  A
C1337      H1347   1.084       .  S
C1338      C1343   1.484       .  S
C1338      C1339   1.413       .  A
C1339      C1340   1.401       .  A
C1339      S1344   1.804       .  S
C1340      C1341   1.403       .  A
C1340      H1345   1.084       .  S
C1341      C1342   1.412       .  A
C1342      S1346   1.804       .  S
C1343      C1348   1.410       .  A
C1343      C1352   1.404       .  A
S1344      H1360   1.406       .  S
S1346      H1357   1.407       .  S
C1348      C1349   1.402       .  A
C1348      S1353   1.807       .  S
C1349      C1350   1.404       .  A
C1349      H1354   1.083       .  S
C1350      C1351   1.415       .  A
C1351      C1352   1.401       .  A
C1351      S1355   1.806       .  S
C1352      H1356   1.084       .  S
S1353      H1358   1.407       .  S
S1355      H1359   1.404       .  S
C1361      C1362   1.404       .  A
C1361      C1366   1.402       .  A
C1361      H1371   1.084       .  S
C1362      C1367   1.483       .  S
C1362      C1363   1.414       .  A
C1363      C1364   1.398       .  A
C1363      S1368   1.805       .  S
C1364      C1365   1.403       .  A
C1364      H1369   1.084       .  S
C1365      C1366   1.414       .  A
C1366      S1370   1.805       .  S
C1367      C1372   1.411       .  A
C1367      C1376   1.401       .  A
S1368      H1384   1.406       .  S
S1370      H1381   1.406       .  S
C1372      C1373   1.405       .  A
C1372      S1377   1.806       .  S
C1373      C1374   1.403       .  A
C1373      H1378   1.083       .  S
C1374      C1375   1.414       .  A
C1375      C1376   1.399       .  A
C1375      S1379   1.804       .  S
C1376      H1380   1.084       .  S
S1377      H1382   1.407       .  S
S1379      H1383   1.406       .  S
C1385      C1386   1.399       .  A
C1385      C1390   1.397       .  A
C1385      H1395   1.084       .  S
C1386      C1391   1.475       .  S
C1386      C1387   1.410       .  A
C1387      C1388   1.400       .  A
C1387      S1392   1.805       .  S
C1388      C1389   1.407       .  A
C1388      H1393   1.084       .  S
C1389      C1390   1.418       .  A
C1390      S1394   1.803       .  S
C1391      C1396   1.408       .  A
C1391      C1400   1.402       .  A
S1392      H1408   1.405       .  S
S1394      H1405   1.407       .  S
C1396      C1397   1.400       .  A
C1396      S1401   1.807       .  S
C1397      C1398   1.403       .  A
C1397      H1402   1.083       .  S
C1398      C1399   1.414       .  A
C1399      C1400   1.399       .  A
C1399      S1403   1.807       .  S
C1400      H1404   1.084       .  S
S1401      H1406   1.407       .  S
S1403      H1407   1.404       .  S
C1409      C1410   1.402       .  A
C1409      C1414   1.399       .  A
C1409      H1419   1.084       .  S
C1410      C1415   1.476       .  S
C1410      C1411   1.413       .  A
C1411      C1412   1.399       .  A
C1411      S1416   1.806       .  S
C1412      C1413   1.403       .  A
C1412      H1417   1.084       .  S
C1413      C1414   1.412       .  A
C1414      S1418   1.803       .  S
C1415      C1420   1.409       .  A
C1415      C1424   1.402       .  A
S1416      H1432   1.404       .  S
S1418      H1429   1.407       .  S
C1420      C1421   1.401       .  A
C1420      S1425   1.804       .  S
C1421      C1422   1.402       .  A
C1421      H1426   1.083       .  S
C1422      C1423   1.412       .  A
C1423      C1424   1.398       .  A
C1423      S1427   1.803       .  S
C1424      H1428   1.084       .  S
S1425      H1430   1.407       .  S
S1427      H1431   1.405       .  S
C1433      C1434   1.401       .  A
C1433      C1438   1.397       .  A
C1433      H1443   1.084       .  S
C1434      C1439   1.476       .  S
C1434      C1435   1.411       .  A
C1435      C1436   1.400       .  A
C1435      S1440   1.804       .  S
C1436      C1437   1.406       .  A
C1436      H1441   1.084       .  S
C1437      C1438   1.415       .  A
C1438      S1442   1.803       .  S
C1439      C1444   1.408       .  A
C1439      C1448   1.403       .  A
S1440      H1456   1.406       .  S
S1442      H1453   1.407       .  S
C1444      C1445   1.399       .  A
C1444      S1449   1.807       .  S
C1445      C1446   1.403       .  A
C1445      H1450   1.083       .  S
C1446      C1447   1.414       .  A
C1447      C1448   1.400       .  A
C1447      S1451   1.806       .  S
C1448      H1452   1.084       .  S
S1449      H1454   1.407       .  S
S1451      H1455   1.404       .  S
