geometry optimzed in LAMMPS
_audit_creation_date              2020-11-30 
_audit_creation_method            'lammps2cif' 
_symmetry_space_group_name_H-M    'P1' 
_symmetry_Int_Tables_number       1 
_symmetry_cell_setting            triclinic 
loop_ 
_symmetry_equiv_pos_as_xyz 
  x,y,z 
_cell_length_a                    36.67569065 
_cell_length_b                    32.49792217467659 
_cell_length_c                    41.71117353828456 
_cell_angle_alpha                 87.34750395592235 
_cell_angle_beta                  87.33697706873633 
_cell_angle_gamma                 121.48064922276295 
loop_ 
_atom_site_label 
_atom_site_type_symbol 
_atom_site_fract_x 
_atom_site_fract_y 
_atom_site_fract_z 
_atom_site_charge 
Zr1        Zr  0.26941263  0.13085969  0.80994508     2.17500
O2          O  0.22375400  0.10610144  0.76520113    -0.51700
O3          O  0.20527765  0.09344642  0.84763949    -0.74900
O4          O  0.25010268  0.04942848  0.79219305    -0.81700
O5          O  0.28199937  0.25634808  0.81363257    -0.83500
O6          O  0.30243155  0.03539755  0.80391529    -0.79100
O7          O  0.24360258  0.18420433  0.79173239    -0.90700
O8          O  0.22482148  0.11190822  0.89841833    -0.76700
O9          O  0.28682572  0.09606207  0.85362102    -0.86200
O10         O  0.28313585  0.18044726  0.85388394    -0.85900
O11         O  0.33349950  0.13411945  0.78985443    -0.72600
O12         O  0.32859328  0.21078187  0.79133844    -0.84800
Zr13       Zr  0.42322697  0.22485574  0.86186778     2.26400
Zr14       Zr  0.35076813  0.09964060  0.83426016     2.06300
Zr15       Zr  0.34238891  0.25859511  0.83624735     2.10000
Zr16       Zr  0.30068429  0.14572531  0.89731101     1.78800
O17         O  0.37098809  0.32904021  0.79765381    -0.93600
O18         O  0.26619784  0.06597821  0.92647287    -0.41400
O19         O  0.36015889  0.22469216  0.88054432    -0.78000
O20         O  0.36346274  0.14565377  0.88009501    -0.96700
O21         O  0.41060239  0.17791462  0.81688173    -0.90000
O22         O  0.40696872  0.26208010  0.81842120    -0.92800
C23         C  0.19684541  0.09417238  0.87781416     1.00900
C24         C  0.25133591  0.22669034  0.79758625     1.13800
C25         C  0.26727562  0.02311208  0.79178493     1.04600
O26         O  0.31247748  0.02413536  0.86840264    -0.95000
O27         O  0.40393273  0.09556375  0.86301409    -0.90700
O28         O  0.44790785  0.17013484  0.88022269    -0.83900
C29         C  0.43579782  0.12525674  0.87796289     1.11300
O30         O  0.37035268  0.21147070  0.72001791    -0.97000
Zr31       Zr  0.39322683  0.21384578  0.77411828     1.88900
O32         O  0.48860099  0.26179814  0.82613273    -0.73600
O33         O  0.39374292  0.07975405  0.79950951    -0.52900
O34         O  0.40994090  0.16861982  0.73746148    -0.97600
O35         O  0.41866651  0.29235422  0.74535102    -0.54800
O36         O  0.46957030  0.24761512  0.77489687    -0.74100
C37         C  0.49730457  0.26255258  0.79589020     0.98200
O38         O  0.46741438  0.25362548  0.90726152    -0.62900
O39         O  0.31232805  0.28942017  0.87480636    -0.57800
O40         O  0.44210013  0.30322793  0.88224358    -0.94400
O41         O  0.39493808  0.32299861  0.86444793    -0.92900
O42         O  0.29126662  0.19782100  0.93251618    -0.93200
O43         O  0.32812378  0.14523680  0.94931535    -0.92000
C44         C  0.42742968  0.33161282  0.87950860     1.17100
H45         H  0.25922167  0.18401426  0.85977061     0.33000
H46         H  0.36987021  0.13154863  0.89815496     0.43900
H47         H  0.43028691  0.29514997  0.81309044     0.37400
H48         H  0.32815125  0.11558821  0.77133564     0.33900
H49         H  0.24768198  0.06675083  0.94419056     0.25600
H50         H  0.38664529  0.04732197  0.80821758     0.31600
H51         H  0.42999174  0.16220977  0.74853161     0.37500
H52         H  0.26237028  0.17673242  0.94381402     0.32000
H53         H  0.31192595  0.31599162  0.86255006     0.30800
H54         H  0.36262752  0.35028554  0.80764982     0.32500
H55         H  0.44171321  0.31660880  0.75761162     0.31500
H56         H  0.35725698  0.17467889  0.94754580     0.35500
H57         H  0.45317032  0.22667679  0.92440873     0.28200
H58         H  0.19711858  0.07561591  0.77348229     0.32400
H59         H  0.34034056  0.18369281  0.72166904     0.35300
H60         H  0.28178551  0.26351675  0.87930269     0.27900
H61         H  0.49456570  0.25566612  0.90038817     0.40800
H62         H  0.30962806  0.03393507  0.89003898     0.30800
H63         H  0.24580695  0.04350327  0.91180128     0.38400
H64         H  0.39474821  0.29794960  0.74869423     0.30300
H65         H  0.38118582  0.07448256  0.77847752     0.30400
H66         H  0.23773827  0.09655254  0.74879701     0.30600
C67         C  0.17142909  0.32746502  0.73904532    -0.02900
C68         C  0.01970356  0.02546061  0.92811017    -0.02900
Zr69       Zr  0.46109497  0.03782955  0.52685759     2.17500
O70         O  0.43146518  0.05754100  0.57300468    -0.51700
O71         O  0.43274694  0.07479325  0.49203508    -0.74900
O72         O  0.01576208  0.11880411  0.54589860    -0.81700
O73         O  0.36687592  0.40884779  0.52775772    -0.83500
O74         O  0.08256802  0.13949742  0.52595234    -0.79100
O75         O  0.38473056  0.48035210  0.54684801    -0.90700
O76         O  0.45123554  0.07136171  0.43980486    -0.76700
O77         O  0.01594142  0.07702211  0.48349897    -0.86200
O78         O  0.43651925  0.49153881  0.48184743    -0.85900
O79         O  0.02225866  0.03593853  0.54430022    -0.72600
O80         O  0.44931532  0.45906286  0.54310519    -0.84800
Zr81       Zr  0.04148124  0.45279315  0.46871444     2.26400
Zr82       Zr  0.07575662  0.07335287  0.49981134     2.06300
Zr83       Zr  0.42571289  0.41440451  0.49679179     2.10000
Zr84       Zr  0.48899667  0.02982905  0.43730572     1.78800
O85         O  0.39157043  0.33794198  0.53003634    -0.93600
O86         O  0.04274531  0.11418728  0.41424834    -0.41400
O87         O  0.47830988  0.45140809  0.45212866    -0.78000
O88         O  0.05278624  0.03177727  0.45216802    -0.96700
O89         O  0.06393370  0.99563548  0.51433613    -0.90000
O90         O  0.98772998  0.41287906  0.51283499    -0.92800
C91         C  0.43294287  0.08244570  0.46153934     1.00900
C92         C  0.35725692  0.43503946  0.54337373     1.13800
C93         C  0.05722947  0.14800166  0.54193081     1.04600
O94         O  0.11642601  0.14819837  0.46509864    -0.95000
O95         O  0.13763031  0.07853271  0.47423268    -0.90700
O96         O  0.11776094  0.01084488  0.44906187    -0.83900
C97         C  0.14641121  0.05417295  0.45587184     1.11300
O98         O  0.99121696  0.46589013  0.61312896    -0.97000
Zr99       Zr  0.01207359  0.45910974  0.55825572     1.88900
O100        O  0.07019353  0.41624886  0.50359869    -0.73600
O101        O  0.12765059  0.09520127  0.54008694    -0.52900
O102        O  0.06753135  0.99870147  0.59092217    -0.97600
O103        O  0.46092182  0.37933236  0.58619687    -0.54800
O104        O  0.05102786  0.41855481  0.55588225    -0.74100
C105        C  0.06980259  0.40808664  0.53408167     0.98200
O106        O  0.06619684  0.43121115  0.42068347    -0.62900
O107        O  0.36895506  0.38950249  0.46028307    -0.57800
O108        O  0.99010259  0.37291814  0.44785243    -0.94400
O109        O  0.42080911  0.35429016  0.46400394    -0.92900
O110        O  0.43071259  0.48331459  0.40525272    -0.93200
O111        O  0.01377848  0.02850686  0.38256297    -0.92000
C112        C  0.44671661  0.34538129  0.44915075     1.17100
H113        H  0.40961049  0.48748605  0.47625673     0.33000
H114        H  0.07451750  0.04788133  0.43440755     0.43900
H115        H  0.47935212  0.37992583  0.51726901     0.37400
H116        H  0.03240843  0.05381260  0.56308227     0.33900
H117        H  0.03065256  0.11799071  0.39439680     0.25600
H118        H  0.14961429  0.12971479  0.53417700     0.31600
H119        H  0.09595228  0.50249347  0.58079149     0.37500
H120        H  0.42979841  0.01454596  0.39024486     0.32000
H121        H  0.34913269  0.35431922  0.46570198     0.30800
H122        H  0.36948568  0.31390487  0.51701524     0.32500
H123        H  0.97337525  0.37814679  0.60561400     0.31500
H124        H  0.02123861  0.00330835  0.38426841     0.35500
H125        H  0.07920153  0.46032208  0.40525142     0.28200
H126        H  0.43371327  0.08837802  0.56600304     0.32400
H127        H  0.96837186  0.47319623  0.61083653     0.35300
H128        H  0.35249453  0.40436073  0.46710158     0.27900
H129        H  0.09057966  0.42841129  0.42697989     0.40800
H130        H  0.11680297  0.13797354  0.44316174     0.30800
H131        H  0.04024521  0.13579049  0.42898021     0.44700
H132        H  0.45692983  0.35534489  0.57078909     0.30300
H133        H  0.11271306  0.09538593  0.56041974     0.30400
H134        H  0.45225474  0.06592268  0.58953271     0.30600
C135        C  0.32996399  0.15174739  0.40423342    -0.02900
C136        C  0.17237295  0.33765919  0.59232312    -0.02900
Zr137      Zr  0.10247987  0.28816934  0.14074419     2.17500
O138        O  0.06392083  0.27134198  0.09221148    -0.51700
O139        O  0.03828429  0.26083176  0.17667697    -0.74900
O140        O  0.07207410  0.20521764  0.12543765    -0.81700
O141        O  0.13041180  0.41646839  0.13338029    -0.83500
O142        O  0.11662162  0.18012014  0.14049957    -0.79100
O143        O  0.07970759  0.34198635  0.12045676    -0.90700
O144        O  0.05723616  0.27550919  0.22759263    -0.76700
O145        O  0.11274163  0.24927727  0.18633993    -0.86200
O146        O  0.12163727  0.34221225  0.18225141    -0.85900
O147        O  0.16082409  0.27843746  0.12331949    -0.72600
O148        O  0.16634533  0.36221538  0.11938824    -0.84800
Zr149      Zr  0.25485925  0.36623653  0.19150387     2.26400
Zr150      Zr  0.17187685  0.24100895  0.16970869     2.06300
Zr151      Zr  0.18582881  0.41454369  0.16186961     2.10000
Zr152      Zr  0.13245999  0.30383997  0.22750995     1.78800
O153        O  0.23006095  0.48364181  0.12290110    -0.93600
O154        O  0.09903483  0.22580737  0.25886598    -0.41400
O155        O  0.19704218  0.37714170  0.20806847    -0.78000
O156        O  0.19051191  0.29271679  0.21272307    -0.96700
O157        O  0.23603973  0.31374140  0.14934661    -0.90000
O158        O  0.24481460  0.40591216  0.14610796    -0.92800
C159        C  0.02955283  0.26209059  0.20664617     1.00900
C160        C  0.09504564  0.38753545  0.12127616     1.13800
C161        C  0.08428810  0.17464400  0.12641988     1.04600
O162        O  0.13275483  0.17226376  0.20975585    -0.95000
O163        O  0.22784903  0.23622383  0.19502115    -0.90700
O164        O  0.27762122  0.31041126  0.20923014    -0.83900
C165        C  0.26297480  0.26496734  0.20743502     1.11300
O166        O  0.19687763  0.34098924  0.05158336    -0.97000
Zr167      Zr  0.22498781  0.35249784  0.10436964     1.88900
O168        O  0.31960680  0.39827635  0.15508412    -0.73600
O169        O  0.20054565  0.20178197  0.13762793    -0.52900
O170        O  0.23915582  0.30144520  0.07164244    -0.97600
O171        O  0.25596357  0.43043911  0.07311247    -0.54800
O172        O  0.30066698  0.38303380  0.10418458    -0.74100
C173        C  0.32864358  0.39810679  0.12496390     0.98200
O174        O  0.29338352  0.38055110  0.23989220    -0.62900
O175        O  0.16127003  0.46159229  0.18919872    -0.57800
O176        O  0.28120255  0.44693815  0.20999256    -0.94400
O177        O  0.23476276  0.47040344  0.19704464    -0.92900
O178        O  0.11964809  0.35686719  0.25914917    -0.93200
O179        O  0.15762202  0.31533099  0.28129796    -0.92000
C180        C  0.26727097  0.47598211  0.21083547     1.17100
H181        H  0.09999954  0.34986571  0.18734201     0.33000
H182        H  0.19604455  0.27849407  0.23130129     0.43900
H183        H  0.27044102  0.43690970  0.13992795     0.37400
H184        H  0.15329416  0.25822840  0.10554895     0.33900
H185        H  0.07856061  0.22632427  0.27493122     0.25600
H186        H  0.18164694  0.16669846  0.14401282     0.31600
H187        H  0.25373744  0.29005151  0.08565393     0.37500
H188        H  0.14152013  0.39002489  0.25002561     0.32000
H189        H  0.16663735  0.48785951  0.17304483     0.30800
H190        H  0.23792635  0.51227556  0.13500407     0.32500
H191        H  0.26578011  0.42579895  0.05182781     0.31500
H192        H  0.18695830  0.32120166  0.27841895     0.35500
H193        H  0.32168574  0.41062156  0.23460799     0.28200
H194        H  0.03477798  0.24299010  0.09834304     0.32400
H195        H  0.16533251  0.32089409  0.05618046     0.35300
H196        H  0.12963803  0.44045888  0.19242308     0.27900
H197        H  0.27809022  0.38888319  0.25602252     0.40800
H198        H  0.13630018  0.14659269  0.20109106     0.30800
H199        H  0.08055448  0.20173714  0.24410229     0.38400
H200        H  0.28288123  0.45250213  0.08287105     0.30300
H201        H  0.19435462  0.20584526  0.11524304     0.30400
H202        H  0.07770273  0.25976865  0.07718243     0.30600
C203        C  0.00730856  0.48462554  0.07192617    -0.02900
C204        C  0.35230604  0.16842337  0.25803140    -0.02900
C205        C  0.38240201  0.41289037  0.07985947    -0.20700
C206        C  0.37394603  0.41573571  0.11272972    -0.07300
C207        C  0.40836919  0.43233443  0.13269101     0.13600
C208        C  0.44984679  0.44946078  0.11870736    -0.20800
C209        C  0.45954935  0.45357045  0.08501967    -0.07300
C210        C  0.42374279  0.42831937  0.06620560     0.13600
C211        C  0.42553512  0.41122688  0.03339828    -0.24100
H212        H  0.35608763  0.39640937  0.06454748     0.14900
H213        H  0.47562697  0.46328824  0.13427676     0.14900
C214        C  0.40274043  0.43362736  0.16864014    -0.24100
H215        H  0.39903754  0.37295333  0.03278344     0.05100
H216        H  0.45484687  0.41056504  0.02763629     0.08300
H217        H  0.42138766  0.43330945  0.01450602     0.08300
H218        H  0.37999892  0.39653165  0.17996040     0.08300
H219        H  0.39086542  0.45798876  0.17394298     0.08300
H220        H  0.43339134  0.44757022  0.18006378     0.05100
C221        C  0.08814569  0.12056739  0.08938725    -0.20700
C222        C  0.06231193  0.13114755  0.10856139    -0.07300
C223        C  0.01783423  0.09864012  0.11183330     0.13600
C224        C  0.00085051  0.05405664  0.09832487    -0.20800
C225        C  0.02739000  0.03888672  0.08358551    -0.07300
C226        C  0.07183855  0.07560984  0.07681655     0.13600
C227        C  0.10460285  0.06937304  0.05829939    -0.24100
H228        H  0.12229593  0.14710976  0.08550366     0.14900
H229        H  0.46678830  0.03302611  0.09779903     0.14900
C230        C  0.98839344  0.10998893  0.13050011    -0.24100
H231        H  0.13211068  0.07890311  0.07292401     0.05100
H232        H  0.11653903  0.09354625  0.03568605     0.08300
H233        H  0.09222819  0.03246302  0.05222932     0.08300
H234        H  0.99043889  0.14256323  0.11874923     0.08300
H235        H  0.99774725  0.11678340  0.15554655     0.08300
H236        H  0.45450657  0.08102622  0.12970708     0.05100
C237        C  0.08107397  0.45410043  0.12012222    -0.20700
C238        C  0.07031945  0.40923262  0.10930504    -0.07300
C239        C  0.03485645  0.38620607  0.09038366     0.13600
C240        C  0.01371762  0.41037660  0.08150586    -0.20800
C241        C  0.02882535  0.45875734  0.08815996    -0.07300
C242        C  0.05879927  0.47693419  0.11253829     0.13600
C243        C  0.06680554  0.01609838  0.13608635    -0.24100
H244        H  0.10529236  0.47027834  0.13715624     0.14900
H245        H  0.48915898  0.39505600  0.06685649     0.14900
C246        C  0.01998720  0.33752361  0.07796967    -0.24100
H247        H  0.06635439  0.00264122  0.16119065     0.05100
H248        H  0.04172594  0.02493978  0.13784699     0.08300
H249        H  0.09888849  0.04918626  0.12997815     0.08300
H250        H  0.00815752  0.30931302  0.09831099     0.08300
H251        H  0.04686951  0.33899346  0.06347821     0.08300
H252        H  0.49707851  0.33010653  0.06194730     0.05100
C253        C  0.27868174  0.19912509  0.20775488    -0.20700
C254        C  0.28762607  0.24296636  0.21953537    -0.07300
C255        C  0.31964665  0.26370974  0.24143918     0.13600
C256        C  0.34000325  0.23920895  0.25150538    -0.20800
C257        C  0.32857204  0.19267600  0.24216796    -0.07300
C258        C  0.29961393  0.17500315  0.21703370     0.13600
C259        C  0.29221227  0.13488973  0.19603660    -0.24100
H260        H  0.25587592  0.18402849  0.18963045     0.14900
H261        H  0.36433168  0.25604031  0.26819506     0.14900
C262        C  0.33192090  0.31077466  0.25541792    -0.24100
H263        H  0.28754898  0.14354488  0.17102943     0.05100
H264        H  0.26252803  0.10051799  0.20509095     0.08300
H265        H  0.31979834  0.13033393  0.19279398     0.08300
H266        H  0.30315025  0.30783645  0.26789486     0.08300
H267        H  0.34622862  0.34070483  0.23602166     0.08300
H268        H  0.35604252  0.32026063  0.27333612     0.05100
C269        C  0.29007351  0.08249514  0.25865882    -0.20700
C270        C  0.33392146  0.11538210  0.24831310    -0.07300
C271        C  0.35579289  0.09551032  0.23108754     0.13600
C272        C  0.33164018  0.04905556  0.22043030    -0.20800
C273        C  0.28781978  0.01944399  0.22846937    -0.07300
C274        C  0.26707314  0.03517717  0.24930637     0.13600
C275        C  0.22380059  0.49819390  0.26352513    -0.24100
H276        H  0.27283085  0.09487192  0.27303482     0.14900
H277        H  0.34747591  0.03545171  0.20551077     0.14900
C278        C  0.40352857  0.11670757  0.22473174    -0.24100
H279        H  0.21320428  0.51353803  0.28245713     0.05100
H280        H  0.22073320  0.46453805  0.27432906     0.08300
H281        H  0.20195619  0.48923977  0.24402944     0.08300
H282        H  0.42432305  0.14794171  0.23774372     0.08300
H283        H  0.41285705  0.12565599  0.19846941     0.08300
H284        H  0.41135849  0.08934699  0.23287982     0.05100
C285        C  0.97665129  0.25053391  0.25131051    -0.20700
C286        C  0.98501318  0.24751235  0.21847886    -0.07300
C287        C  0.45137527  0.23016409  0.19740227     0.13600
C288        C  0.40948371  0.21037957  0.21141936    -0.20800
C289        C  0.39992859  0.20423024  0.24522786    -0.07300
C290        C  0.43519473  0.23207189  0.26399495     0.13600
C291        C  0.43252525  0.24788907  0.29710748    -0.24100
H292        H  0.00299856  0.26772987  0.26653797     0.14900
H293        H  0.38368212  0.19540551  0.19584507     0.14900
C294        C  0.45774207  0.23120152  0.16129518    -0.24100
H295        H  0.45650642  0.28720543  0.29736819     0.05100
H296        H  0.44017225  0.22820716  0.31539581     0.08300
H297        H  0.40179247  0.24447051  0.30429358     0.08300
H298        H  0.96853332  0.21141862  0.15464421     0.08300
H299        H  0.98062287  0.27351593  0.15295512     0.08300
H300        H  0.42740704  0.21843232  0.14962600     0.05100
C301        C  0.35325207  0.13319246  0.34958813    -0.20700
C302        C  0.33302642  0.15379079  0.36616578    -0.07300
C303        C  0.31409800  0.17373738  0.34655091     0.13600
C304        C  0.31810530  0.17414386  0.31275399    -0.20800
C305        C  0.34497089  0.16140673  0.29619255    -0.07300
C306        C  0.36158145  0.13867335  0.31600934     0.13600
C307        C  0.38795801  0.11864121  0.30335399    -0.24100
H308        H  0.36249006  0.11121664  0.36270479     0.14900
H309        H  0.29898421  0.18420898  0.29962761     0.14900
C310        C  0.28781547  0.19334648  0.36028204    -0.24100
H311        H  0.40000952  0.10571630  0.32292202     0.05100
H312        H  0.41703716  0.14711086  0.28907494     0.08300
H313        H  0.36835260  0.08653162  0.29012503     0.08300
H314        H  0.30465353  0.21889486  0.37863230     0.08300
H315        H  0.25602648  0.16322732  0.37064581     0.08300
H316        H  0.28153971  0.21363356  0.34142307     0.05100
C317        C  0.20501955  0.05778285  0.41892848    -0.20700
C318        C  0.19253955  0.07964914  0.44163805    -0.07300
C319        C  0.22442124  0.12731121  0.44909490     0.13600
C320        C  0.26641455  0.14961386  0.43491396    -0.20800
C321        C  0.28073296  0.12597083  0.41529736    -0.07300
C322        C  0.24784205  0.08033970  0.40501489     0.13600
C323        C  0.25626413  0.05462327  0.37903735    -0.24100
H324        H  0.18087914  0.02286871  0.41157063     0.14900
H325        H  0.28839572  0.18647174  0.43995906     0.14900
C326        C  0.21608350  0.15650546  0.47227451    -0.24100
H327        H  0.22861717  0.01716137  0.37788066     0.05100
H328        H  0.28457462  0.05197686  0.38326266     0.08300
H329        H  0.26109863  0.07383551  0.35511212     0.08300
H330        H  0.20496612  0.13661260  0.49647361     0.08300
H331        H  0.19245027  0.16453232  0.46306883     0.08300
H332        H  0.24528439  0.19206165  0.47545293     0.05100
C333        C  0.40043161  0.25793026  0.45792385    -0.20700
C334        C  0.42452445  0.29765783  0.43556233    -0.07300
C335        C  0.41594895  0.29200490  0.40303712     0.13600
C336        C  0.38494683  0.24603779  0.39355284    -0.20800
C337        C  0.35876236  0.20499798  0.41607018    -0.07300
C338        C  0.36742165  0.21307247  0.44938626     0.13600
C339        C  0.34370786  0.17644099  0.47781838    -0.24100
H340        H  0.40576902  0.26298012  0.48322764     0.14900
H341        H  0.38214983  0.24317219  0.36806042     0.14900
C342        C  0.43861429  0.33494515  0.37845522    -0.24100
H343        H  0.36594602  0.16839548  0.48984561     0.05100
H344        H  0.31640182  0.14253094  0.47172471     0.08300
H345        H  0.33076569  0.19133381  0.49535197     0.08300
H346        H  0.97921647  0.34334613  0.37888546     0.08300
H347        H  0.43097186  0.36259803  0.38478278     0.08300
H348        H  0.42869007  0.32472669  0.35387340     0.05100
C349        C  0.36355887  0.07547543  0.45848264    -0.20700
C350        C  0.40754452  0.10178230  0.44977055    -0.07300
C351        C  0.42486552  0.14005670  0.42577676     0.13600
C352        C  0.39758081  0.15117122  0.41099009    -0.20800
C353        C  0.35242083  0.12582444  0.41914667    -0.07300
C354        C  0.33511368  0.08543700  0.44342424     0.13600
C355        C  0.28815634  0.05059887  0.45464258    -0.24100
H356        H  0.35116503  0.04491956  0.47636703     0.14900
H357        H  0.41212340  0.18147128  0.39282012     0.14900
C358        C  0.47245976  0.17032632  0.41614775    -0.24100
H359        H  0.27112726  0.02689361  0.43559879     0.05100
H360        H  0.27164163  0.06857910  0.46355022     0.08300
H361        H  0.28395018  0.02522266  0.47528592     0.08300
H362        H  0.48340314  0.14816760  0.40464362     0.08300
H363        H  0.49020232  0.18517033  0.43772982     0.08300
H364        H  0.48080378  0.20127580  0.39854538     0.05100
C365        C  0.29637618  0.43481955  0.57502920    -0.20700
C366        C  0.31095365  0.40977658  0.55724007    -0.07300
C367        C  0.28026474  0.36020326  0.55264304     0.13600
C368        C  0.23726388  0.33908935  0.56422546    -0.20800
C369        C  0.22131003  0.36475023  0.57968075    -0.07300
C370        C  0.25272832  0.41343226  0.58645106     0.13600
C371        C  0.24190447  0.44497113  0.60512785    -0.24100
H372        H  0.31910040  0.47193851  0.57972422     0.14900
H373        H  0.21623183  0.30120502  0.56113071     0.14900
C374        C  0.29116131  0.32733874  0.53571140    -0.24100
H375        H  0.25474797  0.48047155  0.59126109     0.05100
H376        H  0.25692608  0.45148885  0.62834617     0.08300
H377        H  0.20716465  0.42937194  0.61015538     0.08300
H378        H  0.31560918  0.32429170  0.54844753     0.08300
H379        H  0.30226057  0.34124197  0.51021886     0.08300
H380        H  0.26320197  0.28988001  0.53526601     0.05100
C381        C  0.13907351  0.27951977  0.54794500    -0.20700
C382        C  0.14587909  0.28346899  0.58129640    -0.07300
C383        C  0.12208550  0.23876548  0.60128300     0.13600
C384        C  0.09019088  0.19593794  0.58846875    -0.20800
C385        C  0.08048187  0.19523539  0.55634546    -0.07300
C386        C  0.10575023  0.23788677  0.53590098     0.13600
C387        C  0.09708115  0.23986269  0.50102364    -0.24100
H388        H  0.15797222  0.31112437  0.53123293     0.14900
H389        H  0.07371091  0.16196190  0.60338657     0.14900
C390        C  0.13162080  0.23308758  0.63508174    -0.24100
H391        H  0.11799613  0.27673458  0.48873325     0.05100
H392        H  0.06321392  0.22954053  0.49951123     0.08300
H393        H  0.10284849  0.21474421  0.48780322     0.08300
H394        H  0.11932939  0.24987454  0.65107109     0.08300
H395        H  0.16654586  0.24850964  0.63585187     0.08300
H396        H  0.11538025  0.19450863  0.64451618     0.05100
C397        C  0.13783684  0.41053930  0.53489282    -0.20700
C398        C  0.09459912  0.38753489  0.54553545    -0.07300
C399        C  0.07671451  0.34773286  0.56842265     0.13600
C400        C  0.10335031  0.33394841  0.58154454    -0.20800
C401        C  0.14873222  0.36063720  0.57506943    -0.07300
C402        C  0.16510677  0.39693528  0.54791314     0.13600
C403        C  0.20815570  0.41886315  0.52865845    -0.24100
H404        H  0.15046316  0.43990062  0.51604787     0.14900
H405        H  0.08829948  0.30163498  0.59802743     0.14900
C406        C  0.02940670  0.31920080  0.57902252    -0.24100
H407        H  0.20848505  0.43576355  0.50477552     0.05100
H408        H  0.21570354  0.39115218  0.52277373     0.08300
H409        H  0.23378074  0.44892209  0.54057333     0.08300
H410        H  0.01052482  0.30636460  0.55772484     0.08300
H411        H  0.02051732  0.34208471  0.59204610     0.08300
H412        H  0.02046610  0.28705493  0.59564622     0.05100
C413        C  0.03458717  0.49163266  0.97717722    -0.20700
C414        C  0.01876591  0.02003407  0.96625648    -0.07300
C415        C  0.50231727  0.03782774  0.98853277     0.13600
C416        C  0.49613708  0.02076489  0.02099879    -0.20800
C417        C  0.01203423  0.49232103  0.03365059    -0.07300
C418        C  0.03355955  0.47915477  0.01021375     0.13600
C419        C  0.05327974  0.44904139  0.01688418    -0.24100
H420        H  0.04781222  0.47788455  0.95997558     0.14900
H421        H  0.47902081  0.03127972  0.03717881     0.14900
C422        C  0.49386398  0.07845235  0.98316446    -0.24100
H423        H  0.07393152  0.45090232  0.99582358     0.05100
H424        H  0.02769933  0.41033279  0.02096859     0.08300
H425        H  0.07489455  0.46148488  0.03648683     0.08300
H426        H  0.45880920  0.06346453  0.98373783     0.08300
H427        H  0.51095291  0.10309415  0.96151612     0.08300
H428        H  0.50608144  0.10284182  0.00298346     0.05100
C429        C  0.20640564  0.34210814  0.64681586    -0.20700
C430        C  0.17178678  0.33975394  0.63086394    -0.07300
C431        C  0.13994207  0.33974217  0.65236406     0.13600
C432        C  0.13742400  0.32701608  0.68556839    -0.20800
C433        C  0.17280709  0.33198447  0.70113945    -0.07300
C434        C  0.21001203  0.34569563  0.68023382     0.13600
C435        C  0.25388770  0.36212737  0.69131820    -0.24100
H436        H  0.23257006  0.34274822  0.63329620     0.14900
H437        H  0.10914411  0.32014891  0.69968687     0.14900
C438        C  0.11491390  0.36350103  0.64472733    -0.24100
H439        H  0.26562339  0.33905748  0.68250415     0.05100
H440        H  0.27677615  0.39988324  0.68116492     0.08300
H441        H  0.25497265  0.36128767  0.71751586     0.08300
H442        H  0.08119926  0.33598985  0.64104702     0.08300
H443        H  0.13135088  0.39268053  0.62502644     0.08300
H444        H  0.11256221  0.38267064  0.66527220     0.05100
C445        C  0.46170220  0.41943513  0.87172704    -0.20700
C446        C  0.44945975  0.37915999  0.89297533    -0.07300
C447        C  0.45092818  0.38459585  0.92615708     0.13600
C448        C  0.46835676  0.43116918  0.93693989    -0.20800
C449        C  0.48799153  0.47382638  0.91534920    -0.07300
C450        C  0.47974242  0.46612080  0.88204077     0.13600
C451        C  0.49104214  0.50577563  0.85609022    -0.24100
H452        H  0.45712116  0.41405620  0.84640295     0.14900
H453        H  0.96379329  0.43062489  0.96038586     0.14900
C454        C  0.93154962  0.33960145  0.94654313    -0.24100
H455        H  0.48287507  0.49184118  0.83199094     0.05100
H456        H  0.52578903  0.53205805  0.85378900     0.08300
H457        H  0.47248983  0.52320472  0.86090095     0.08300
H458        H  0.45061236  0.32233721  0.94652066     0.08300
H459        H  0.89707528  0.31433688  0.94329613     0.08300
H460        H  0.93437613  0.34913710  0.97191928     0.05100
C461        C  0.14496906  0.10144733  0.91287154    -0.20700
C462        C  0.15226287  0.07571055  0.89004375    -0.07300
C463        C  0.11771651  0.03209283  0.88138015     0.13600
C464        C  0.07669112  0.01572344  0.89550774    -0.20800
C465        C  0.06734110  0.04381859  0.91572959    -0.07300
C466        C  0.10365482  0.08599406  0.92644251     0.13600
C467        C  0.10071015  0.11547640  0.95235437    -0.24100
H468        H  0.17219960  0.13423180  0.92028468     0.14900
H469        H  0.04915612  0.47867172  0.88756496     0.14900
C470        C  0.12382595  0.00166412  0.85795463    -0.24100
H471        H  0.13196714  0.14935315  0.95441918     0.05100
H472        H  0.09173525  0.09497660  0.97624838     0.08300
H473        H  0.07773667  0.12649555  0.94707713     0.08300
H474        H  0.14725678  0.99265121  0.86647935     0.08300
H475        H  0.13555338  0.02170415  0.83378754     0.08300
H476        H  0.09082476  0.46209240  0.85600584     0.05100
C477        C  0.45885913  0.03868887  0.92319932    -0.20700
C478        C  0.50302484  0.05789825  0.91459396    -0.07300
C479        C  0.52514606  0.10251803  0.89361531     0.13600
C480        C  0.50264111  0.12506337  0.88435363    -0.20800
C481        C  0.45919561  0.10485388  0.89341069    -0.07300
C482        C  0.43720257  0.06141037  0.91345725     0.13600
C483        C  0.39061893  0.03875529  0.92514075    -0.24100
H484        H  0.44086293  0.00508055  0.93841614     0.14900
H485        H  0.51864613  0.15802892  0.86838343     0.14900
C486        C  0.57076735  0.12750356  0.87821957    -0.24100
H487        H  0.37975711  0.00785542  0.94346074     0.05100
H488        H  0.37033973  0.02469063  0.90475288     0.08300
H489        H  0.38561674  0.06598044  0.93630938     0.08300
H490        H  0.57888729  0.10242522  0.86790015     0.08300
H491        H  0.09371677  0.15012353  0.89442525     0.08300
H492        H  0.57611559  0.15318476  0.85740575     0.05100
C493        C  0.18766875  0.28857351  0.78695766    -0.20700
C494        C  0.18633306  0.29229361  0.75297735    -0.07300
C495        C  0.19785557  0.26239924  0.73577059     0.13600
C496        C  0.21895687  0.24206348  0.75112529    -0.20800
C497        C  0.22473841  0.24447579  0.78386089    -0.07300
C498        C  0.20675689  0.26582729  0.80235273     0.13600
C499        C  0.20719591  0.26441770  0.83848338    -0.24100
H500        H  0.17602773  0.30654857  0.80169907     0.14900
H501        H  0.23032232  0.22284964  0.73730728     0.14900
C502        C  0.18543120  0.24457793  0.70298725    -0.24100
H503        H  0.18902251  0.27962337  0.84943349     0.05100
H504        H  0.24056536  0.28616048  0.84524597     0.08300
H505        H  0.19227577  0.22638713  0.84878009     0.08300
H506        H  0.16394255  0.25388682  0.69246703     0.08300
H507        H  0.16747380  0.20435047  0.70499992     0.08300
H508        H  0.21431612  0.25763547  0.68615227     0.05100
C509        C  0.11788708  0.33019698  0.78117187    -0.20700
C510        C  0.12483238  0.30567222  0.75632221    -0.07300
C511        C  0.08821375  0.25989093  0.75036040     0.13600
C512        C  0.04727359  0.24680813  0.76342175    -0.20800
C513        C  0.04105435  0.27553364  0.78413022    -0.07300
C514        C  0.07688778  0.31713323  0.79390454     0.13600
C515        C  0.07220048  0.34924866  0.81659621    -0.24100
H516        H  0.14441116  0.36044723  0.79113644     0.14900
H517        H  0.51931121  0.21647955  0.75718629     0.14900
C518        C  0.09031015  0.22307311  0.73110258    -0.24100
H519        H  0.10360972  0.38208383  0.82013438     0.05100
H520        H  0.05784187  0.32934362  0.84055982     0.08300
H521        H  0.05147268  0.36138248  0.80661902     0.08300
H522        H  0.11164981  0.21262952  0.74172437     0.08300
H523        H  0.09984816  0.23655383  0.70564763     0.08300
H524        H  0.05858225  0.18896497  0.73131500     0.05100
C525        C  0.21124792  0.46235618  0.75812365    -0.20700
C526        C  0.24311064  0.47250458  0.77884242    -0.07300
C527        C  0.25619820  0.43828614  0.78273345     0.13600
C528        C  0.23604383  0.39536229  0.76692237    -0.20800
C529        C  0.20077668  0.38206341  0.74843161    -0.07300
C530        C  0.19072694  0.41918669  0.74247446     0.13600
C531        C  0.15820143  0.41534516  0.72022813    -0.24100
H532        H  0.20646637  0.99330391  0.75066053     0.14900
H533        H  0.24829310  0.37180879  0.76993454     0.14900
C534        C  0.29075351  0.44492923  0.80410641    -0.24100
H535        H  0.15369909  0.44658657  0.72044132     0.05100
H536        H  0.12615013  0.38315905  0.72727306     0.08300
H537        H  0.17035302  0.41627858  0.69530833     0.08300
H538        H  0.28209950  0.44893121  0.82911240     0.08300
H539        H  0.32208188  0.47684308  0.79461111     0.08300
H540        H  0.29496087  0.41344011  0.80525472     0.05100
Zr541      Zr  0.26792095  0.62982426  0.80871065     2.17500
O542        O  0.22699282  0.60846092  0.76136365    -0.51700
O543        O  0.20269312  0.59274724  0.84519746    -0.74900
O544        O  0.24797575  0.54768626  0.79229469    -0.81700
O545        O  0.28157272  0.75603087  0.81074306    -0.83500
O546        O  0.29731767  0.53099609  0.80821817    -0.79100
O547        O  0.24172044  0.68300800  0.79019032    -0.90700
O548        O  0.22116915  0.60613747  0.89669072    -0.76700
O549        O  0.28382547  0.59459168  0.85327731    -0.86200
O550        O  0.28093439  0.67955634  0.85240575    -0.85900
O551        O  0.33187308  0.63136629  0.79034131    -0.72600
O552        O  0.32808353  0.70921194  0.79023782    -0.84800
Zr553      Zr  0.42025080  0.72279107  0.86245632     2.26400
Zr554      Zr  0.34803670  0.59730590  0.83561443     2.06300
Zr555      Zr  0.34075700  0.75737100  0.83475106     2.10000
Zr556      Zr  0.29716185  0.64466042  0.89660308     1.78800
O557        O  0.36882624  0.82717708  0.79569219    -0.93600
O558        O  0.26903483  0.56651283  0.92672892    -0.41400
O559        O  0.35705591  0.72322195  0.87964763    -0.78000
O560        O  0.36006156  0.64391931  0.88099099    -0.96700
O561        O  0.40847969  0.67485398  0.81815071    -0.90000
O562        O  0.40496363  0.75946525  0.81813455    -0.92800
C563        C  0.19380911  0.59089231  0.87562485     1.00900
C564        C  0.25036878  0.72616366  0.79519764     1.13800
C565        C  0.26364216  0.51989400  0.79427369     1.04600
O566        O  0.31469918  0.52099151  0.86871067    -0.95000
O567        O  0.40110099  0.59387531  0.86490059    -0.90700
O568        O  0.44600962  0.66926566  0.88055160    -0.83900
C569        C  0.43352046  0.62418391  0.87909426     1.11300
O570        O  0.36884586  0.70956064  0.72071324    -0.97000
Zr571      Zr  0.39241068  0.71051983  0.77443621     1.88900
O572        O  0.48683021  0.76011082  0.82771937    -0.73600
O573        O  0.39088196  0.58001781  0.79863048    -0.52900
O574        O  0.40595639  0.66224240  0.73836302    -0.97600
O575        O  0.42715135  0.79074529  0.74575520    -0.54800
O576        O  0.46814993  0.74156646  0.77682271    -0.74100
C577        C  0.49584014  0.75870043  0.79780317     0.98200
O578        O  0.45725327  0.74692243  0.91154817    -0.62900
O579        O  0.31078674  0.78661504  0.87460178    -0.57800
O580        O  0.44001975  0.80239472  0.88092477    -0.94400
O581        O  0.39456893  0.82348609  0.86118072    -0.92900
O582        O  0.27636714  0.68902711  0.93081272    -0.93200
O583        O  0.32483379  0.65739798  0.94952455    -0.92000
C584        C  0.42636721  0.83160496  0.87700739     1.17100
H585        H  0.25673719  0.68277057  0.85796127     0.33000
H586        H  0.36628652  0.63014288  0.89935957     0.43900
H587        H  0.42849644  0.79235800  0.81255237     0.37400
H588        H  0.32656905  0.61214425  0.77217774     0.33900
H589        H  0.25057018  0.56619114  0.94495671     0.25600
H590        H  0.38735359  0.54949360  0.80804345     0.31600
H591        H  0.42838752  0.65859012  0.74797617     0.37500
H592        H  0.25794677  0.69606510  0.91797126     0.32000
H593        H  0.31442918  0.81655432  0.86396163     0.30800
H594        H  0.36996133  0.85302672  0.80808248     0.32500
H595        H  0.45542049  0.80992025  0.75456839     0.31500
H596        H  0.35413864  0.68642371  0.94582352     0.35500
H597        H  0.44208632  0.71779477  0.92700494     0.28200
H598        H  0.20005230  0.57732639  0.76797543     0.32400
H599        H  0.33749580  0.69535438  0.72429616     0.35300
H600        H  0.27947394  0.76311126  0.87637830     0.27900
H601        H  0.48586443  0.75163680  0.90628435     0.40800
H602        H  0.30506554  0.52763835  0.88931059     0.30800
H603        H  0.24859689  0.54245898  0.91280681     0.38400
H604        H  0.41068041  0.80502577  0.75369183     0.30300
H605        H  0.37545903  0.57112776  0.77883635     0.30400
H606        H  0.24293199  0.60043975  0.74561270     0.30600
C607        C  0.17176391  0.82957094  0.73751426    -0.02900
C608        C  0.01783764  0.52428127  0.92670968    -0.02900
Zr609      Zr  0.46201370  0.53807609  0.52750692     2.17500
O610        O  0.43369439  0.55735849  0.57469541    -0.51700
O611        O  0.43463029  0.57563115  0.49220960    -0.74900
O612        O  0.01424513  0.61879507  0.54627247    -0.81700
O613        O  0.36439365  0.90948283  0.52425981    -0.83500
O614        O  0.08059981  0.64140072  0.52412171    -0.79100
O615        O  0.38454617  0.97897587  0.54745044    -0.90700
O616        O  0.45101508  0.56942843  0.43997704    -0.76700
O617        O  0.01510609  0.57635912  0.48344352    -0.86200
O618        O  0.43556985  0.99146402  0.48116352    -0.85900
O619        O  0.02378575  0.53764742  0.54471492    -0.72600
O620        O  0.44787539  0.95859920  0.54229594    -0.84800
Zr621      Zr  0.03997981  0.95275600  0.46732877     2.26400
Zr622      Zr  0.07604994  0.57511957  0.49947172     2.06300
Zr623      Zr  0.42460375  0.91420734  0.49579103     2.10000
Zr624      Zr  0.49022056  0.52955879  0.43802125     1.78800
O625        O  0.39027640  0.83929884  0.53070086    -0.93600
O626        O  0.04074179  0.61054179  0.41264639    -0.41400
O627        O  0.47730059  0.95165074  0.45121646    -0.78000
O628        O  0.05306380  0.53119061  0.45280724    -0.96700
O629        O  0.06610315  0.49835762  0.51472093    -0.90000
O630        O  0.98472424  0.91238750  0.51066299    -0.92800
C631        C  0.43375341  0.58179554  0.46168860     1.00900
C632        C  0.35608071  0.93473911  0.54216489     1.13800
C633        C  0.05536143  0.64921708  0.54088233     1.04600
O634        O  0.11579668  0.64947194  0.46407371    -0.95000
O635        O  0.13758648  0.58085569  0.47312864    -0.90700
O636        O  0.11942193  0.51034418  0.45234111    -0.83900
C637        C  0.14720937  0.55477819  0.45741730     1.11300
O638        O  0.98798663  0.96152428  0.61243181    -0.97000
Zr639      Zr  0.00850199  0.95648384  0.55702212     1.88900
O640        O  0.06930244  0.91739259  0.50250671    -0.73600
O641        O  0.12983369  0.60088986  0.53850135    -0.52900
O642        O  0.07120825  0.50167893  0.59209334    -0.97600
O643        O  0.45786745  0.88056094  0.58546438    -0.54800
O644        O  0.04663723  0.91515300  0.55466313    -0.74100
C645        C  0.06728058  0.90712598  0.53288667     0.98200
O646        O  0.06269326  0.92837743  0.41970625    -0.62900
O647        O  0.36837054  0.88711817  0.45866674    -0.57800
O648        O  0.98856515  0.87237597  0.44778562    -0.94400
O649        O  0.42101239  0.85363716  0.46400035    -0.92900
O650        O  0.42776626  0.98867342  0.40515696    -0.93200
O651        O  0.01550427  0.52620341  0.38403050    -0.92000
C652        C  0.44720064  0.84454475  0.44975661     1.17100
H653        H  0.40871223  0.98757609  0.47562644     0.33000
H654        H  0.07461003  0.54699505  0.43489053     0.43900
H655        H  0.47861042  0.88014051  0.51649753     0.37400
H656        H  0.03403407  0.55620536  0.56321185     0.33900
H657        H  0.02738300  0.61309059  0.39317029     0.25600
H658        H  0.14765986  0.63660853  0.53466044     0.31600
H659        H  0.09325013  0.00461590  0.57777437     0.37500
H660        H  0.42481376  0.44987490  0.40772747     0.32000
H661        H  0.34614389  0.85376318  0.46715338     0.30800
H662        H  0.36927715  0.81421406  0.51760829     0.32500
H663        H  0.97115601  0.87340215  0.60244592     0.31500
H664        H  0.02779017  0.50554554  0.38681166     0.35500
H665        H  0.07334330  0.95593256  0.40321259     0.28200
H666        H  0.43658237  0.58877538  0.56847505     0.32400
H667        H  0.98588132  0.99070664  0.61168654     0.35300
H668        H  0.35491160  0.90636639  0.46209918     0.27900
H669        H  0.08854610  0.92809828  0.42522904     0.40800
H670        H  0.11642988  0.63894460  0.44227384     0.30800
H671        H  0.03910085  0.63298420  0.42706643     0.44700
H672        H  0.45606948  0.85611165  0.57127011     0.30300
H673        H  0.11386566  0.59501673  0.55968073     0.30400
H674        H  0.45455111  0.56451045  0.59102635     0.30600
C675        C  0.33008410  0.65088650  0.40600419    -0.02900
C676        C  0.17122441  0.83859344  0.59081111    -0.02900
Zr677      Zr  0.10199734  0.78681702  0.14123398     2.17500
O678        O  0.06455255  0.77180818  0.09224384    -0.51700
O679        O  0.03773365  0.75776266  0.17766066    -0.74900
O680        O  0.07232071  0.70415571  0.12504704    -0.81700
O681        O  0.12919830  0.91507470  0.13449942    -0.83500
O682        O  0.11654863  0.67889861  0.14080156    -0.79100
O683        O  0.07769727  0.84032030  0.12270527    -0.90700
O684        O  0.05762465  0.77671628  0.22802345    -0.76700
O685        O  0.11233797  0.74824562  0.18704583    -0.86200
O686        O  0.12144825  0.84111522  0.18257344    -0.85900
O687        O  0.16051492  0.77706207  0.12409110    -0.72600
O688        O  0.16599288  0.86075436  0.11961671    -0.84800
Zr689      Zr  0.25475917  0.86622730  0.19193584     2.26400
Zr690      Zr  0.17139510  0.73990996  0.17075996     2.06300
Zr691      Zr  0.18527664  0.91337733  0.16192242     2.10000
Zr692      Zr  0.13249922  0.80311212  0.22801762     1.78800
O693        O  0.22909303  0.98245446  0.12280654    -0.93600
O694        O  0.09645423  0.72478269  0.25920548    -0.41400
O695        O  0.19663795  0.87661602  0.20830070    -0.78000
O696        O  0.19066710  0.79241989  0.21324555    -0.96700
O697        O  0.23571651  0.81273834  0.15025443    -0.90000
O698        O  0.24453152  0.90515530  0.14614295    -0.92800
C699        C  0.02946452  0.76117168  0.20736308     1.00900
C700        C  0.09328417  0.88602446  0.12318575     1.13800
C701        C  0.08442813  0.67342967  0.12628505     1.04600
O702        O  0.12981283  0.67552044  0.21329975    -0.95000
O703        O  0.22806535  0.73654507  0.19624049    -0.90700
O704        O  0.27767795  0.81077216  0.21051450    -0.83900
C705        C  0.26311909  0.76531858  0.20878873     1.11300
O706        O  0.19649885  0.83824183  0.05205554    -0.97000
Zr707      Zr  0.22473453  0.85076646  0.10489580     1.88900
O708        O  0.31987754  0.90009525  0.15588630    -0.73600
O709        O  0.19821170  0.69526059  0.14308077    -0.52900
O710        O  0.23764375  0.79662993  0.07460593    -0.97600
O711        O  0.25778468  0.92643557  0.07066279    -0.54800
O712        O  0.30033251  0.88111960  0.10552900    -0.74100
C713        C  0.32862604  0.89814707  0.12604379     0.98200
O714        O  0.29653236  0.88368938  0.23875681    -0.62900
O715        O  0.16193104  0.96116785  0.18960390    -0.57800
O716        O  0.27867129  0.94612539  0.21114014    -0.94400
O717        O  0.23178940  0.96878815  0.19818408    -0.92900
O718        O  0.12182113  0.85557948  0.26192238    -0.93200
O719        O  0.16257142  0.81165109  0.27988869    -0.92000
C720        C  0.26430305  0.97476599  0.21205820     1.17100
H721        H  0.09980144  0.84878502  0.18762442     0.33000
H722        H  0.19633416  0.77851261  0.23191529     0.43900
H723        H  0.27004539  0.93616880  0.13976570     0.37400
H724        H  0.15312935  0.75684804  0.10634708     0.33900
H725        H  0.08183434  0.72892709  0.27822123     0.25600
H726        H  0.17887910  0.66100782  0.15145301     0.31600
H727        H  0.24849419  0.78251007  0.09021467     0.37500
H728        H  0.11986272  0.87842288  0.24661189     0.32000
H729        H  0.16548425  0.98622539  0.17315880     0.30800
H730        H  0.25262215  0.00649418  0.13486472     0.32500
H731        H  0.28091495  0.95104777  0.08269304     0.31500
H732        H  0.19294906  0.83819124  0.27554379     0.35500
H733        H  0.32424965  0.91409329  0.23245052     0.28200
H734        H  0.03554378  0.74290889  0.09778474     0.32400
H735        H  0.22176506  0.85161846  0.03619382     0.35300
H736        H  0.13054606  0.93953888  0.19445365     0.27900
H737        H  0.28185170  0.89199987  0.25542928     0.40800
H738        H  0.12840850  0.64664782  0.20513589     0.30800
H739        H  0.07280452  0.70277142  0.24638660     0.38400
H740        H  0.23584586  0.93546747  0.07083012     0.30300
H741        H  0.19188414  0.69643625  0.12035259     0.30400
H742        H  0.07907189  0.76132911  0.07702077     0.30600
C743        C  0.00755652  0.98563085  0.07322655    -0.02900
C744        C  0.35159676  0.66758978  0.26006970    -0.02900
C745        C  0.38208780  0.91300976  0.08090983    -0.20700
C746        C  0.37393468  0.91608095  0.11375347    -0.07300
C747        C  0.40859864  0.93318904  0.13351882     0.13600
C748        C  0.45007170  0.95076948  0.11926316    -0.20800
C749        C  0.45936375  0.95451629  0.08550213    -0.07300
C750        C  0.42333550  0.92901831  0.06690565     0.13600
C751        C  0.42495118  0.91246713  0.03384932    -0.24100
H752        H  0.35561644  0.89633081  0.06576027     0.14900
H753        H  0.47615471  0.96513347  0.13462025     0.14900
C754        C  0.40311108  0.93416663  0.16951907    -0.24100
H755        H  0.39646644  0.87579333  0.03189307     0.05100
H756        H  0.45255743  0.90811570  0.02912122     0.08300
H757        H  0.42425655  0.93714756  0.01495242     0.08300
H758        H  0.38033203  0.89699411  0.18070526     0.08300
H759        H  0.39128542  0.95849039  0.17508501     0.08300
H760        H  0.43381661  0.94792262  0.18083532     0.05100
C761        C  0.08835977  0.61901837  0.08921341    -0.20700
C762        C  0.06251597  0.62978929  0.10826537    -0.07300
C763        C  0.01790179  0.59756450  0.11094861     0.13600
C764        C  0.00080454  0.55310230  0.09715428    -0.20800
C765        C  0.02723585  0.53795851  0.08223160    -0.07300
C766        C  0.07179823  0.57446337  0.07587995     0.13600
C767        C  0.10436916  0.56826237  0.05703221    -0.24100
H768        H  0.12260723  0.64521824  0.08574290     0.14900
H769        H  0.46595876  0.53170059  0.09729767     0.14900
C770        C  0.98834432  0.60902812  0.12930672    -0.24100
H771        H  0.13101579  0.57549335  0.07205617     0.05100
H772        H  0.11760774  0.59420032  0.03524351     0.08300
H773        H  0.09139815  0.53195836  0.04941277     0.08300
H774        H  0.99092946  0.64193573  0.11761594     0.08300
H775        H  0.99711244  0.61529020  0.15451291     0.08300
H776        H  0.45267572  0.57934760  0.12874094     0.05100
C777        C  0.08108904  0.95410046  0.12111691    -0.20700
C778        C  0.06871708  0.90815085  0.11139826    -0.07300
C779        C  0.03249609  0.88510776  0.09322770     0.13600
C780        C  0.01259534  0.91038576  0.08352178    -0.20800
C781        C  0.02856507  0.95919017  0.08969880    -0.07300
C782        C  0.05932475  0.97757655  0.11351398     0.13600
C783        C  0.06497463  0.51442180  0.13567466    -0.24100
H784        H  0.10620172  0.97075486  0.13741857     0.14900
H785        H  0.48549221  0.89347050  0.06937318     0.14900
C786        C  0.01535715  0.83500773  0.08258139    -0.24100
H787        H  0.06282541  0.49964612  0.16074449     0.05100
H788        H  0.04040690  0.52403765  0.13674385     0.08300
H789        H  0.09736117  0.54745672  0.13069754     0.08300
H790        H  0.00404949  0.80837506  0.10374831     0.08300
H791        H  0.04084676  0.83412985  0.06780232     0.08300
H792        H  0.48997755  0.82613833  0.06593495     0.05100
C793        C  0.27760800  0.69851014  0.21017528    -0.20700
C794        C  0.28758096  0.74310703  0.22120192    -0.07300
C795        C  0.32016354  0.76403725  0.24268630     0.13600
C796        C  0.33958517  0.73868588  0.25338690    -0.20800
C797        C  0.32733933  0.69158788  0.24456877    -0.07300
C798        C  0.29769895  0.67360529  0.21989925     0.13600
C799        C  0.28844974  0.63177815  0.20011294    -0.24100
H800        H  0.25423157  0.68308878  0.19248453     0.14900
H801        H  0.36424100  0.75556670  0.26987930     0.14900
C802        C  0.33438218  0.81248519  0.25524970    -0.24100
H803        H  0.27801050  0.63588658  0.17620973     0.05100
H804        H  0.26134767  0.59740672  0.21193140     0.08300
H805        H  0.31725995  0.63016412  0.19407536     0.08300
H806        H  0.30662720  0.81139135  0.26803818     0.08300
H807        H  0.34838624  0.84115096  0.23501900     0.08300
H808        H  0.35933294  0.82251270  0.27252552     0.05100
C809        C  0.29150929  0.58004850  0.26083170    -0.20700
C810        C  0.33457890  0.61498040  0.24962694    -0.07300
C811        C  0.35732809  0.59717856  0.23110391     0.13600
C812        C  0.33404367  0.55144069  0.21920004    -0.20800
C813        C  0.29058750  0.52011342  0.22784015    -0.07300
C814        C  0.26959576  0.53320719  0.25050376     0.13600
C815        C  0.22065900  0.00243687  0.26175550    -0.24100
H816        H  0.27375194  0.59046625  0.27643282     0.14900
H817        H  0.35030791  0.53961168  0.20311174     0.14900
C818        C  0.40522832  0.61963458  0.22478567    -0.24100
H819        H  0.21060170  0.01966147  0.27963453     0.05100
H820        H  0.21571782  0.96845424  0.27371445     0.08300
H821        H  0.19960838  0.99377192  0.24178291     0.08300
H822        H  0.42516802  0.64909809  0.23941079     0.08300
H823        H  0.41497115  0.63141786  0.19878747     0.08300
H824        H  0.41363487  0.59212775  0.23105646     0.05100
C825        C  0.97671185  0.75002043  0.25203657    -0.20700
C826        C  0.98490074  0.74661401  0.21925351    -0.07300
C827        C  0.45053248  0.73225935  0.19951469     0.13600
C828        C  0.40869067  0.71191341  0.21377442    -0.20800
C829        C  0.39925462  0.70403880  0.24757821    -0.07300
C830        C  0.43469220  0.73029282  0.26653942     0.13600
C831        C  0.43222166  0.74509884  0.30001983    -0.24100
H832        H  0.00310524  0.76714055  0.26722572     0.14900
H833        H  0.38272823  0.69781021  0.19825231     0.14900
C834        C  0.45693446  0.73690326  0.16328436    -0.24100
H835        H  0.45720774  0.78392236  0.30104342     0.05100
H836        H  0.43849508  0.72376888  0.31802011     0.08300
H837        H  0.40194159  0.74303520  0.30691142     0.08300
H838        H  0.96748214  0.70846060  0.15613420     0.08300
H839        H  0.98051727  0.77090277  0.15378523     0.08300
H840        H  0.42676054  0.72623841  0.15189827     0.05100
C841        C  0.35192706  0.63132405  0.35132182    -0.20700
C842        C  0.33252037  0.65272370  0.36801219    -0.07300
C843        C  0.31386809  0.67320947  0.34862341     0.13600
C844        C  0.31756856  0.67347610  0.31483141    -0.20800
C845        C  0.34400110  0.66017091  0.29816082    -0.07300
C846        C  0.36011250  0.63673796  0.31779322     0.13600
C847        C  0.38600095  0.61612514  0.30500325    -0.24100
H848        H  0.36072526  0.60884106  0.36432595     0.14900
H849        H  0.29879593  0.68419221  0.30183599     0.14900
C850        C  0.28861052  0.69395352  0.36261016    -0.24100
H851        H  0.39759096  0.60251941  0.32451771     0.05100
H852        H  0.41531560  0.64444355  0.29089063     0.08300
H853        H  0.36632096  0.58441116  0.29143967     0.08300
H854        H  0.30652527  0.72026420  0.38030062     0.08300
H855        H  0.25710528  0.66455458  0.37392718     0.08300
H856        H  0.28171766  0.71364738  0.34373795     0.05100
C857        C  0.20540394  0.55758639  0.42108365    -0.20700
C858        C  0.19334526  0.57936988  0.44407298    -0.07300
C859        C  0.22550591  0.62611426  0.45253106     0.13600
C860        C  0.26728307  0.64862723  0.43795440    -0.20800
C861        C  0.28111901  0.62531368  0.41751111    -0.07300
C862        C  0.24805038  0.57986863  0.40712657     0.13600
C863        C  0.25597215  0.55397155  0.38099496    -0.24100
H864        H  0.18098695  0.52304966  0.41341278     0.14900
H865        H  0.28941737  0.68518524  0.44348040     0.14900
C866        C  0.21768813  0.65351119  0.47759174    -0.24100
H867        H  0.22827732  0.51646776  0.38007712     0.05100
H868        H  0.28429579  0.55122814  0.38489324     0.08300
H869        H  0.26035778  0.57301585  0.35708676     0.08300
H870        H  0.20498625  0.63087929  0.50082199     0.08300
H871        H  0.19535900  0.66430743  0.46928633     0.08300
H872        H  0.24751017  0.68745391  0.48242164     0.05100
C873        C  0.40121462  0.75724525  0.45932334    -0.20700
C874        C  0.42547025  0.79655685  0.43672566    -0.07300
C875        C  0.41772293  0.79034061  0.40413902     0.13600
C876        C  0.38571913  0.74472430  0.39499383    -0.20800
C877        C  0.35922496  0.70407248  0.41771956    -0.07300
C878        C  0.36848158  0.71215616  0.45095042     0.13600
C879        C  0.34622496  0.67505812  0.47935840    -0.24100
H880        H  0.40658929  0.76266023  0.48459018     0.14900
H881        H  0.38298976  0.74155046  0.36952370     0.14900
C882        C  0.44315300  0.83211367  0.37900329    -0.24100
H883        H  0.36917961  0.66676272  0.48988267     0.05100
H884        H  0.31832731  0.64135963  0.47361800     0.08300
H885        H  0.33437740  0.68956068  0.49803422     0.08300
H886        H  0.97856291  0.84360246  0.37965178     0.08300
H887        H  0.43800101  0.86204020  0.38403652     0.08300
H888        H  0.43361753  0.82152470  0.35440380     0.05100
C889        C  0.36413136  0.57386840  0.45873702    -0.20700
C890        C  0.40810006  0.60072575  0.45003375    -0.07300
C891        C  0.42521084  0.63929350  0.42631401     0.13600
C892        C  0.39770039  0.65022743  0.41180826    -0.20800
C893        C  0.35262525  0.62483441  0.42037291    -0.07300
C894        C  0.33551292  0.58406759  0.44429398     0.13600
C895        C  0.28868455  0.54935117  0.45594072    -0.24100
H896        H  0.35195234  0.54298546  0.47631630     0.14900
H897        H  0.41201512  0.68053227  0.39365220     0.14900
C898        C  0.47276657  0.67002603  0.41670759    -0.24100
H899        H  0.27114206  0.52572971  0.43700832     0.05100
H900        H  0.27252717  0.56748424  0.46530650     0.08300
H901        H  0.28477562  0.52385169  0.47639587     0.08300
H902        H  0.48397560  0.64809975  0.40523975     0.08300
H903        H  0.49041540  0.68498294  0.43830846     0.08300
H904        H  0.48086650  0.70091624  0.39912212     0.05100
C905        C  0.29512987  0.93585094  0.57264042    -0.20700
C906        C  0.31010068  0.90977430  0.55663123    -0.07300
C907        C  0.28013883  0.85932376  0.55447685     0.13600
C908        C  0.23655724  0.83895345  0.56423728    -0.20800
C909        C  0.22020299  0.86546051  0.57807465    -0.07300
C910        C  0.25155760  0.91444345  0.58428762     0.13600
C911        C  0.24085028  0.94605875  0.60297041    -0.24100
H912        H  0.31758703  0.97356440  0.57612436     0.14900
H913        H  0.21564584  0.80075156  0.56195143     0.14900
C914        C  0.29311755  0.82465097  0.54361164    -0.24100
H915        H  0.25360513  0.98153593  0.58910964     0.05100
H916        H  0.25607786  0.95264606  0.62610744     0.08300
H917        H  0.20613575  0.93040367  0.60822148     0.08300
H918        H  0.31898449  0.82772326  0.55802437     0.08300
H919        H  0.30336885  0.83190134  0.51752717     0.08300
H920        H  0.26634762  0.78623359  0.54717589     0.05100
C921        C  0.13809059  0.78061617  0.54637599    -0.20700
C922        C  0.14483952  0.78454464  0.57971707    -0.07300
C923        C  0.12082548  0.74002365  0.59975783     0.13600
C924        C  0.08824357  0.69747744  0.58716574    -0.20800
C925        C  0.07862143  0.69669481  0.55501245    -0.07300
C926        C  0.10444367  0.73914569  0.53439778     0.13600
C927        C  0.09625507  0.74107077  0.49937974    -0.24100
H928        H  0.15724001  0.81215854  0.52966093     0.14900
H929        H  0.07148322  0.66361599  0.60220322     0.14900
C930        C  0.13130601  0.73415469  0.63320653    -0.24100
H931        H  0.11749194  0.77786825  0.48705849     0.05100
H932        H  0.06251434  0.73100869  0.49750849     0.08300
H933        H  0.10204833  0.71582044  0.48636716     0.08300
H934        H  0.11931019  0.75067616  0.64973431     0.08300
H935        H  0.16634123  0.74978187  0.63341618     0.08300
H936        H  0.11545257  0.69550452  0.64236834     0.05100
C937        C  0.13609545  0.91167078  0.53434487    -0.20700
C938        C  0.09256430  0.88729487  0.54431447    -0.07300
C939        C  0.07470108  0.84658519  0.56638552     0.13600
C940        C  0.10177413  0.83406091  0.58021380    -0.20800
C941        C  0.14723572  0.86129541  0.57381011    -0.07300
C942        C  0.16346551  0.89796524  0.54695509     0.13600
C943        C  0.20622108  0.91973707  0.52733236    -0.24100
H944        H  0.14875415  0.94169005  0.51599018     0.14900
H945        H  0.08690634  0.80175558  0.59669530     0.14900
C946        C  0.02691188  0.81528035  0.57481594    -0.24100
H947        H  0.20586888  0.93577758  0.50330898     0.05100
H948        H  0.21398036  0.89210650  0.52170396     0.08300
H949        H  0.23196789  0.95035674  0.53878244     0.08300
H950        H  0.01021020  0.80293623  0.55250008     0.08300
H951        H  0.01515175  0.83581815  0.58759433     0.08300
H952        H  0.01821865  0.78265827  0.59083444     0.05100
C953        C  0.03590616  0.99294053  0.97886081    -0.20700
C954        C  0.01736801  0.51873238  0.96484832    -0.07300
C955        C  0.50292331  0.53904013  0.98898145     0.13600
C956        C  0.49589780  0.52058729  0.02115030    -0.20800
C957        C  0.01295275  0.99380709  0.03506075    -0.07300
C958        C  0.03484429  0.98079221  0.01195197     0.13600
C959        C  0.05453422  0.95074211  0.01908156    -0.24100
H960        H  0.04920155  0.97901986  0.96186349     0.14900
H961        H  0.47804323  0.53011041  0.03736509     0.14900
C962        C  0.49557214  0.58059979  0.98427650    -0.24100
H963        H  0.07587850  0.95315690  0.99833340     0.05100
H964        H  0.02896203  0.91199142  0.02289938     0.08300
H965        H  0.07543650  0.96265620  0.03911314     0.08300
H966        H  0.46066136  0.56669751  0.98669557     0.08300
H967        H  0.51070115  0.60402415  0.96189132     0.08300
H968        H  0.51050686  0.60572663  0.00339455     0.05100
C969        C  0.20547657  0.84345126  0.64517972    -0.20700
C970        C  0.17066910  0.84076412  0.62937164    -0.07300
C971        C  0.13886217  0.84071329  0.65100333     0.13600
C972        C  0.13679993  0.82852235  0.68429615    -0.20800
C973        C  0.17246054  0.83377525  0.69963807    -0.07300
C974        C  0.20940542  0.84727493  0.67852222     0.13600
C975        C  0.25337911  0.86355397  0.68931757    -0.24100
H976        H  0.23159069  0.84408675  0.63161330     0.14900
H977        H  0.10878729  0.82201040  0.69865709     0.14900
C978        C  0.11376701  0.86442374  0.64340065    -0.24100
H979        H  0.26482907  0.84027805  0.68039034     0.05100
H980        H  0.27628271  0.90124916  0.67906024     0.08300
H981        H  0.25479994  0.86277133  0.71548190     0.08300
H982        H  0.08002142  0.83689739  0.63978646     0.08300
H983        H  0.13004613  0.89343897  0.62358730     0.08300
H984        H  0.11170422  0.88382571  0.66393434     0.05100
C985        C  0.46215228  0.91997407  0.86972627    -0.20700
C986        C  0.44844426  0.87900980  0.89070730    -0.07300
C987        C  0.44927644  0.88370186  0.92399401     0.13600
C988        C  0.46734317  0.93003720  0.93525693    -0.20800
C989        C  0.48826222  0.97313800  0.91410798    -0.07300
C990        C  0.48111577  0.96651782  0.88052696     0.13600
C991        C  0.49465211  0.00724689  0.85485200    -0.24100
H992        H  0.45821683  0.91530768  0.84427389     0.14900
H993        H  0.96368138  0.93259483  0.96227465     0.14900
C994        C  0.92852763  0.84050559  0.94947716    -0.24100
H995        H  0.48777890  0.99420958  0.83042531     0.05100
H996        H  0.52948731  0.03294942  0.85371240     0.08300
H997        H  0.47655224  0.02535924  0.85903838     0.08300
H998        H  0.44684395  0.82001062  0.94408505     0.08300
H999        H  0.89416557  0.81651717  0.94529417     0.08300
H1000       H  0.93040337  0.85045725  0.97473210     0.05100
C1001       C  0.14275998  0.59945397  0.91033542    -0.20700
C1002       C  0.14949126  0.57296040  0.88784087    -0.07300
C1003       C  0.11486672  0.52909458  0.87979240     0.13600
C1004       C  0.07377243  0.51402053  0.89314848    -0.20800
C1005       C  0.06511819  0.54228358  0.91378789    -0.07300
C1006       C  0.10178028  0.58428169  0.92436336     0.13600
C1007       C  0.09961738  0.61403873  0.95042965    -0.24100
H1008       H  0.17026567  0.63236487  0.91734423     0.14900
H1009       H  0.05257747  0.97983797  0.89043997     0.14900
C1010       C  0.12128641  0.49678006  0.85838064    -0.24100
H1011       H  0.13126700  0.64731175  0.95265830     0.05100
H1012       H  0.09027450  0.59338888  0.97428379     0.08300
H1013       H  0.07739724  0.62615834  0.94516392     0.08300
H1014       H  0.14410831  0.48805564  0.86862690     0.08300
H1015       H  0.13409138  0.51519349  0.83385150     0.08300
H1016       H  0.09339282  0.96713834  0.85517107     0.05100
C1017       C  0.45829124  0.53962447  0.92489349    -0.20700
C1018       C  0.50211947  0.55845653  0.91516075    -0.07300
C1019       C  0.52337292  0.60207594  0.89320476     0.13600
C1020       C  0.50040133  0.62398057  0.88394124    -0.20800
C1021       C  0.45747828  0.60448373  0.89435606    -0.07300
C1022       C  0.43637797  0.56225122  0.91556650     0.13600
C1023       C  0.39069709  0.54118845  0.92913202    -0.24100
H1024       H  0.44094206  0.50667443  0.94080574     0.14900
H1025       H  0.51560552  0.65597886  0.86708229     0.14900
C1026       C  0.56852196  0.62667661  0.87688550    -0.24100
H1027       H  0.38026880  0.51035075  0.94740877     0.05100
H1028       H  0.36872795  0.52749232  0.90971384     0.08300
H1029       H  0.38764942  0.56933948  0.94089332     0.08300
H1030       H  0.57628210  0.60135658  0.86648384     0.08300
H1031       H  0.09271040  0.64935758  0.89208238     0.08300
H1032       H  0.57329008  0.65200107  0.85602003     0.05100
C1033       C  0.18845843  0.79033412  0.78492950    -0.20700
C1034       C  0.18652951  0.79396503  0.75105151    -0.07300
C1035       C  0.19720964  0.76345249  0.73365724     0.13600
C1036       C  0.21778489  0.74217747  0.74880070    -0.20800
C1037       C  0.22406313  0.74454624  0.78148726    -0.07300
C1038       C  0.20735875  0.76716463  0.80004950     0.13600
C1039       C  0.20940925  0.76720495  0.83603360    -0.24100
H1040       H  0.17760787  0.80890979  0.79980969     0.14900
H1041       H  0.22837438  0.72235841  0.73486345     0.14900
C1042       C  0.18419440  0.74580065  0.70091684    -0.24100
H1043       H  0.19201223  0.78318904  0.84716432     0.05100
H1044       H  0.24321454  0.78913994  0.84184784     0.08300
H1045       H  0.19462870  0.72951457  0.84696095     0.08300
H1046       H  0.16277079  0.75548298  0.69073446     0.08300
H1047       H  0.16587127  0.70556239  0.70286295     0.08300
H1048       H  0.21282060  0.75861634  0.68384312     0.05100
C1049       C  0.11920344  0.83251969  0.78065970    -0.20700
C1050       C  0.12540057  0.80816000  0.75530233    -0.07300
C1051       C  0.08851314  0.76224679  0.74984568     0.13600
C1052       C  0.04784981  0.74904466  0.76370982    -0.20800
C1053       C  0.04214653  0.77684230  0.78560650    -0.07300
C1054       C  0.07858624  0.81783605  0.79551419     0.13600
C1055       C  0.07502512  0.84691503  0.82127714    -0.24100
H1056       H  0.14615906  0.86318738  0.78993095     0.14900
H1057       H  0.51905955  0.71278964  0.75986484     0.14900
C1058       C  0.09002489  0.72514013  0.73049959    -0.24100
H1059       H  0.10666171  0.87920123  0.82512004     0.05100
H1060       H  0.06206946  0.82427082  0.84450380     0.08300
H1061       H  0.05351199  0.85969687  0.81429149     0.08300
H1062       H  0.11163181  0.71480882  0.74073826     0.08300
H1063       H  0.09880326  0.73818836  0.70491831     0.08300
H1064       H  0.05826706  0.69094282  0.73128412     0.05100
C1065       C  0.21453620  0.96601591  0.75529960    -0.20700
C1066       C  0.24637352  0.97585517  0.77603665    -0.07300
C1067       C  0.25855875  0.94093110  0.78021091     0.13600
C1068       C  0.23730225  0.89741376  0.76503142    -0.20800
C1069       C  0.20187955  0.88434138  0.74669638    -0.07300
C1070       C  0.19283486  0.92219232  0.74030613     0.13600
C1071       C  0.16029586  0.91848227  0.71812807    -0.24100
H1072       H  0.20230890  0.48898128  0.75390211     0.14900
H1073       H  0.24900735  0.87338152  0.76827183     0.14900
C1074       C  0.29342056  0.94764167  0.80123161    -0.24100
H1075       H  0.15651970  0.95025132  0.71795470     0.05100
H1076       H  0.12812833  0.88675401  0.72567328     0.08300
H1077       H  0.17180623  0.91835235  0.69319352     0.08300
H1078       H  0.28596729  0.95348659  0.82607761     0.08300
H1079       H  0.32480456  0.97853280  0.79082776     0.08300
H1080       H  0.29664318  0.91549254  0.80308180     0.05100
Zr1081     Zr  0.76917097  0.13013339  0.80862973     2.17500
O1082       O  0.72647903  0.10694961  0.76223546    -0.51700
O1083       O  0.70490523  0.09316671  0.84602749    -0.74900
O1084       O  0.74856884  0.04765951  0.79285756    -0.81700
O1085       O  0.78210215  0.25624509  0.81087927    -0.83500
O1086       O  0.80011063  0.03285050  0.80585824    -0.79100
O1087       O  0.74197825  0.18283642  0.79093468    -0.90700
O1088       O  0.72410123  0.10725140  0.89731315    -0.76700
O1089       O  0.78678348  0.09564161  0.85260202    -0.86200
O1090       O  0.78279017  0.17978696  0.85232506    -0.85900
O1091       O  0.83294861  0.13214883  0.78903676    -0.72600
O1092       O  0.82862200  0.20947647  0.78930075    -0.84800
Zr1093     Zr  0.92238314  0.22416271  0.86091637     2.26400
Zr1094     Zr  0.85086140  0.09882910  0.83373482     2.06300
Zr1095     Zr  0.84187455  0.25764835  0.83393347     2.10000
Zr1096     Zr  0.80031158  0.14552045  0.89609668     1.78800
O1097       O  0.87006970  0.32862642  0.79585867    -0.93600
O1098       O  0.77107766  0.06776191  0.92704705    -0.41400
O1099       O  0.85938802  0.22445851  0.87882023    -0.78000
O1100       O  0.86288586  0.14493966  0.87946505    -0.96700
O1101       O  0.91072131  0.17677678  0.81626679    -0.90000
O1102       O  0.90625839  0.26031283  0.81671346    -0.92800
C1103       C  0.69637988  0.09156030  0.87647810     1.00900
C1104       C  0.75049918  0.22599855  0.79584007     1.13800
C1105       C  0.76506390  0.02068023  0.79360143     1.04600
O1106       O  0.81902802  0.02142751  0.86526357    -0.95000
O1107       O  0.90425449  0.09579622  0.86305250    -0.90700
O1108       O  0.94733299  0.17032608  0.88065552    -0.83900
C1109       C  0.93565870  0.12557366  0.87837260     1.11300
O1110       O  0.87252284  0.21105090  0.71818874    -0.97000
Zr1111     Zr  0.89309300  0.21136467  0.77288085     1.88900
O1112       O  0.98776906  0.25969135  0.82554912    -0.73600
O1113       O  0.89466620  0.08368288  0.79620020    -0.52900
O1114       O  0.90718729  0.16231001  0.73792658    -0.97600
O1115       O  0.92330725  0.29006755  0.74296377    -0.54800
O1116       O  0.96901927  0.24368054  0.77440882    -0.74100
C1117       C  0.99658612  0.25941558  0.79548438     0.98200
O1118       O  0.96551656  0.25499627  0.90665292    -0.62900
O1119       O  0.81094332  0.28599125  0.87369904    -0.57800
O1120       O  0.94082756  0.30315364  0.87992068    -0.94400
O1121       O  0.89551454  0.32410293  0.85978504    -0.92900
O1122       O  0.78466309  0.19445794  0.92990617    -0.93200
O1123       O  0.82967492  0.15332500  0.94823079    -0.92000
C1124       C  0.92709318  0.33225936  0.87583240     1.17100
H1125       H  0.75863743  0.18288943  0.85823673     0.33000
H1126       H  0.86913945  0.13100776  0.89771841     0.43900
H1127       H  0.92959239  0.29324794  0.81106725     0.37400
H1128       H  0.82726936  0.11294779  0.77083296     0.33900
H1129       H  0.75354633  0.06856275  0.94551750     0.25600
H1130       H  0.89098327  0.05277092  0.80494208     0.31600
H1131       H  0.93061344  0.16039201  0.74730401     0.37500
H1132       H  0.76161401  0.19625019  0.91975089     0.32000
H1133       H  0.81425395  0.31577932  0.86308837     0.30800
H1134       H  0.85835023  0.34752242  0.80473583     0.32500
H1135       H  0.94817344  0.31295340  0.75445069     0.31500
H1136       H  0.86020210  0.17952188  0.94410371     0.35500
H1137       H  0.95202463  0.22799203  0.92377759     0.28200
H1138       H  0.69958880  0.07615232  0.76959176     0.32400
H1139       H  0.84365921  0.18143919  0.71849314     0.35300
H1140       H  0.77969243  0.26214295  0.87545268     0.27900
H1141       H  0.99342125  0.25872628  0.89997585     0.40800
H1142       H  0.80316771  0.02422111  0.88403412     0.30800
H1143       H  0.74981301  0.04365593  0.91358854     0.38400
H1144       H  0.90179523  0.29928125  0.74700085     0.30300
H1145       H  0.87950000  0.07563883  0.77627647     0.30400
H1146       H  0.74167828  0.09806745  0.74642115     0.30600
C1147       C  0.67157292  0.32903625  0.73810864    -0.02900
C1148       C  0.51979232  0.02469206  0.92694758    -0.02900
Zr1149     Zr  0.96132908  0.03762143  0.52705750     2.17500
O1150       O  0.93444075  0.05538865  0.57572851    -0.51700
O1151       O  0.93302814  0.07526018  0.49253188    -0.74900
O1152       O  0.51497734  0.11886056  0.54596039    -0.81700
O1153       O  0.86625126  0.40667212  0.52737277    -0.83500
O1154       O  0.58138052  0.14019789  0.52467943    -0.79100
O1155       O  0.88417280  0.47832847  0.54640245    -0.90700
O1156       O  0.95006835  0.07036134  0.44017598    -0.76700
O1157       O  0.51443329  0.07659967  0.48235557    -0.86200
O1158       O  0.93670977  0.49040625  0.48208393    -0.85900
O1159       O  0.52296910  0.03788664  0.54368272    -0.72600
O1160       O  0.94970687  0.45832982  0.54334989    -0.84800
Zr1161     Zr  0.54018046  0.45187017  0.46878365     2.26400
Zr1162     Zr  0.57504255  0.07447705  0.49825522     2.06300
Zr1163     Zr  0.92645826  0.41358221  0.49710776     2.10000
Zr1164     Zr  0.99097837  0.03234234  0.43756423     1.78800
O1165       O  0.89389742  0.33860435  0.53181214    -0.93600
O1166       O  0.54038724  0.10858192  0.40950255    -0.41400
O1167       O  0.97897545  0.45156174  0.45226278    -0.78000
O1168       O  0.55151059  0.03069585  0.45166223    -0.96700
O1169       O  0.56405581  0.99752352  0.51385979    -0.90000
O1170       O  0.48638687  0.41283528  0.51283622    -0.92800
C1171       C  0.93218769  0.08185952  0.46201486     1.00900
C1172       C  0.85667215  0.43299566  0.54298114     1.13800
C1173       C  0.55630474  0.14842084  0.54128568     1.04600
O1174       O  0.61210585  0.14570247  0.45987439    -0.95000
O1175       O  0.63631204  0.07808295  0.47338214    -0.90700
O1176       O  0.61739943  0.00899544  0.45036348    -0.83900
C1177       C  0.64560406  0.05280513  0.45647673     1.11300
O1178       O  0.48716955  0.46056661  0.61359564    -0.97000
Zr1179     Zr  0.51114042  0.45885012  0.55836456     1.88900
O1180       O  0.56662435  0.41297231  0.50380303    -0.73600
O1181       O  0.63085558  0.10181268  0.53571345    -0.52900
O1182       O  0.56924331  0.00138479  0.59106615    -0.97600
O1183       O  0.96009155  0.38024117  0.58596693    -0.54800
O1184       O  0.55096708  0.41933605  0.55616740    -0.74100
C1185       C  0.56780963  0.40667886  0.53428011     0.98200
O1186       O  0.56264244  0.42874497  0.42041154    -0.62900
O1187       O  0.86858124  0.38598492  0.46146789    -0.57800
O1188       O  0.48819389  0.37291624  0.44757853    -0.94400
O1189       O  0.92259982  0.35383110  0.46440755    -0.92900
O1190       O  0.93231689  0.48778025  0.40364452    -0.93200
O1191       O  0.50825346  0.01969675  0.38282524    -0.92000
C1192       C  0.94858885  0.34497670  0.44958865     1.17100
H1193       H  0.90968397  0.48597332  0.47649093     0.33000
H1194       H  0.57303549  0.04616139  0.43371287     0.43900
H1195       H  0.98107076  0.38012378  0.51737060     0.37400
H1196       H  0.53353066  0.05625702  0.56221859     0.33900
H1197       H  0.52588415  0.11139237  0.39084006     0.25600
H1198       H  0.64931626  0.13729791  0.53074801     0.31600
H1199       H  0.59616762  0.50843549  0.57884870     0.37500
H1200       H  0.92548292  0.95780172  0.40396595     0.32000
H1201       H  0.84770298  0.35183392  0.46924551     0.30800
H1202       H  0.86960598  0.31460706  0.52032257     0.32500
H1203       H  0.47700284  0.37485497  0.60300476     0.31500
H1204       H  0.52753901  0.00722720  0.38561467     0.35500
H1205       H  0.57665742  0.45807669  0.40513567     0.28200
H1206       H  0.94099680  0.08893551  0.57167720     0.32400
H1207       H  0.50219562  0.44984653  0.62766914     0.35300
H1208       H  0.85379226  0.40337711  0.46659071     0.27900
H1209       H  0.58613547  0.42416888  0.42655413     0.40800
H1210       H  0.61618766  0.13391133  0.43935572     0.30800
H1211       H  0.54135708  0.13239597  0.42396481     0.44700
H1212       H  0.96046235  0.35610808  0.57256282     0.30300
H1213       H  0.61611347  0.09785223  0.55714593     0.30400
H1214       H  0.95357193  0.05716528  0.59231595     0.30600
C1215       C  0.82892451  0.15143279  0.40539906    -0.02900
C1216       C  0.67158164  0.33748512  0.59126454    -0.02900
Zr1217     Zr  0.60362630  0.29001610  0.14061670     2.17500
O1218       O  0.56601807  0.27559162  0.09175572    -0.51700
O1219       O  0.53928003  0.26097609  0.17631254    -0.74900
O1220       O  0.57320726  0.20742361  0.12406478    -0.81700
O1221       O  0.63195512  0.41972973  0.13430890    -0.83500
O1222       O  0.61619286  0.18078931  0.14045629    -0.79100
O1223       O  0.58079945  0.34486602  0.12227124    -0.90700
O1224       O  0.55752776  0.27480863  0.22747531    -0.76700
O1225       O  0.61331927  0.25049929  0.18618915    -0.86200
O1226       O  0.62229768  0.34314566  0.18262374    -0.85900
O1227       O  0.66183927  0.28010388  0.12333147    -0.72600
O1228       O  0.66748529  0.36439696  0.11982637    -0.84800
Zr1229     Zr  0.75496997  0.36698175  0.19246454     2.26400
Zr1230     Zr  0.67205331  0.24173326  0.16957460     2.06300
Zr1231     Zr  0.68639871  0.41592126  0.16273418     2.10000
Zr1232     Zr  0.63297579  0.30442087  0.22779836     1.78800
O1233       O  0.73127740  0.48620780  0.12474257    -0.93600
O1234       O  0.59847133  0.22795136  0.26105718    -0.41400
O1235       O  0.69726413  0.37803317  0.20878809    -0.78000
O1236       O  0.69056491  0.29304230  0.21268321    -0.96700
O1237       O  0.73631233  0.31494670  0.14999774    -0.90000
O1238       O  0.74557128  0.40747776  0.14713905    -0.92800
C1239       C  0.53013060  0.26142184  0.20628352     1.00900
C1240       C  0.59625476  0.39052847  0.12278474     1.13800
C1241       C  0.58459930  0.17608624  0.12560371     1.04600
O1242       O  0.63305331  0.17391320  0.21035078    -0.95000
O1243       O  0.72770526  0.23660425  0.19527003    -0.90700
O1244       O  0.77759093  0.31081285  0.20950053    -0.83900
C1245       C  0.76284695  0.26534532  0.20772141     1.11300
O1246       O  0.69783287  0.34260105  0.05237725    -0.97000
Zr1247     Zr  0.72608683  0.35455444  0.10512092     1.88900
O1248       O  0.82070440  0.39901659  0.15734895    -0.73600
O1249       O  0.70070883  0.20347757  0.13652224    -0.52900
O1250       O  0.74304827  0.30581356  0.07221959    -0.97600
O1251       O  0.75663010  0.43144449  0.07269197    -0.54800
O1252       O  0.80163669  0.38566845  0.10633668    -0.74100
C1253       C  0.82954332  0.39938446  0.12712554     0.98200
O1254       O  0.79019652  0.37867030  0.24231887    -0.62900
O1255       O  0.66018714  0.46040845  0.19142942    -0.57800
O1256       O  0.78052608  0.44723458  0.21165190    -0.94400
O1257       O  0.73470062  0.47136350  0.19811756    -0.92900
O1258       O  0.62440779  0.36047991  0.25948464    -0.93200
O1259       O  0.66150551  0.31108389  0.28017950    -0.92000
C1260       C  0.76672903  0.47645626  0.21232881     1.17100
H1261       H  0.60045456  0.35045349  0.18776436     0.33000
H1262       H  0.69592496  0.27860218  0.23123708     0.43900
H1263       H  0.77130069  0.43850326  0.14116472     0.37400
H1264       H  0.65446752  0.26004907  0.10549148     0.33900
H1265       H  0.57999029  0.23080585  0.27775216     0.25600
H1266       H  0.68179361  0.16829015  0.14251929     0.31600
H1267       H  0.75658222  0.29356481  0.08667838     0.37500
H1268       H  0.59965892  0.36081783  0.25128016     0.32000
H1269       H  0.66442085  0.48665547  0.17574848     0.30800
H1270       H  0.71792859  0.50591574  0.12588355     0.32500
H1271       H  0.77050554  0.42767783  0.05305510     0.31500
H1272       H  0.68889518  0.34278755  0.27810549     0.35500
H1273       H  0.81892695  0.40840867  0.23790594     0.28200
H1274       H  0.53721898  0.24623432  0.09703665     0.32400
H1275       H  0.66757172  0.31566432  0.05633877     0.35300
H1276       H  0.62869213  0.43826602  0.19500666     0.27900
H1277       H  0.77440440  0.38715168  0.25787576     0.40800
H1278       H  0.62670448  0.14505095  0.19903005     0.30800
H1279       H  0.57808339  0.20362847  0.24725827     0.38400
H1280       H  0.78093072  0.45528769  0.08422269     0.30300
H1281       H  0.69443919  0.20817888  0.11427510     0.30400
H1282       H  0.58094767  0.26606959  0.07617448     0.30600
C1283       C  0.50825636  0.48657034  0.07213120    -0.02900
C1284       C  0.85196319  0.16888456  0.25921709    -0.02900
C1285       C  0.88189259  0.41312648  0.08142780    -0.20700
C1286       C  0.87436556  0.41579940  0.11449988    -0.07300
C1287       C  0.90899014  0.43063079  0.13405311     0.13600
C1288       C  0.95006616  0.44735280  0.11938949    -0.20800
C1289       C  0.95893207  0.45208486  0.08551609    -0.07300
C1290       C  0.92263665  0.42756597  0.06717031     0.13600
C1291       C  0.92316566  0.40989315  0.03436581    -0.24100
H1292       H  0.85525037  0.39741763  0.06638003     0.14900
H1293       H  0.97612988  0.46006790  0.13463489     0.14900
C1294       C  0.90396144  0.43030171  0.17020481    -0.24100
H1295       H  0.89626217  0.37172805  0.03418107     0.05100
H1296       H  0.95204310  0.40857805  0.02811772     0.08300
H1297       H  0.91884512  0.43201822  0.01562118     0.08300
H1298       H  0.88057515  0.39298325  0.18086433     0.08300
H1299       H  0.89311039  0.45520054  0.17666220     0.08300
H1300       H  0.93464608  0.44258942  0.18125817     0.05100
C1301       C  0.58862641  0.12203639  0.08833974    -0.20700
C1302       C  0.56269827  0.13264782  0.10744530    -0.07300
C1303       C  0.51816332  0.10016406  0.11032402     0.13600
C1304       C  0.50127366  0.05570331  0.09659441    -0.20800
C1305       C  0.52785415  0.04040585  0.08212225    -0.07300
C1306       C  0.57231069  0.07718068  0.07544889     0.13600
C1307       C  0.60504786  0.07099780  0.05680605    -0.24100
H1308       H  0.62281291  0.14847596  0.08470455     0.14900
H1309       H  0.96636535  0.03139198  0.09972455     0.14900
C1310       C  0.48851076  0.11119769  0.12898066    -0.24100
H1311       H  0.63192677  0.07901158  0.07177592     0.05100
H1312       H  0.61800307  0.09646152  0.03478357     0.08300
H1313       H  0.59232813  0.03445728  0.04965354     0.08300
H1314       H  0.49089978  0.14414978  0.11757514     0.08300
H1315       H  0.49737731  0.11718893  0.15418091     0.08300
H1316       H  0.95441323  0.07966864  0.13170502     0.05100
C1317       C  0.58130203  0.45648957  0.12190792    -0.20700
C1318       C  0.57133167  0.41198697  0.11086322    -0.07300
C1319       C  0.53676135  0.38916374  0.09116393     0.13600
C1320       C  0.51563883  0.41309881  0.08173889    -0.20800
C1321       C  0.52981929  0.46109535  0.08882263    -0.07300
C1322       C  0.55912890  0.47928754  0.11367358     0.13600
C1323       C  0.56777709  0.01854825  0.13481960    -0.24100
H1324       H  0.60495490  0.47246609  0.13937337     0.14900
H1325       H  0.98637083  0.39214754  0.06742798     0.14900
C1326       C  0.52300445  0.34095924  0.07842046    -0.24100
H1327       H  0.56744052  0.00555409  0.16002578     0.05100
H1328       H  0.54276740  0.02750742  0.13642100     0.08300
H1329       H  0.59986481  0.05152520  0.12850084     0.08300
H1330       H  0.51049993  0.31234561  0.09856278     0.08300
H1331       H  0.55065396  0.34311267  0.06461966     0.08300
H1332       H  0.99327250  0.32654159  0.06223284     0.05100
C1333       C  0.77854184  0.19951332  0.20834513    -0.20700
C1334       C  0.78743492  0.24336595  0.21999874    -0.07300
C1335       C  0.81919044  0.26404150  0.24210612     0.13600
C1336       C  0.83924322  0.23935600  0.25256065    -0.20800
C1337       C  0.82780259  0.19271138  0.24338086    -0.07300
C1338       C  0.79890666  0.17495894  0.21817465     0.13600
C1339       C  0.79055629  0.13372838  0.19801846    -0.24100
H1340       H  0.75583331  0.18447187  0.19015775     0.14900
H1341       H  0.86343924  0.25619432  0.26937118     0.14900
C1342       C  0.83154561  0.31129742  0.25583267    -0.24100
H1343       H  0.78260426  0.13958636  0.17349248     0.05100
H1344       H  0.76226443  0.09934033  0.20873992     0.08300
H1345       H  0.81892663  0.13087347  0.19332882     0.08300
H1346       H  0.80276737  0.30857134  0.26811507     0.08300
H1347       H  0.84603647  0.34109528  0.23633810     0.08300
H1348       H  0.85553215  0.32083914  0.27386346     0.05100
C1349       C  0.79104855  0.08195616  0.25976623    -0.20700
C1350       C  0.83451372  0.11605865  0.24915298    -0.07300
C1351       C  0.85706258  0.09744500  0.23131889     0.13600
C1352       C  0.83350587  0.05164594  0.21949094    -0.20800
C1353       C  0.78979623  0.02101641  0.22762744    -0.07300
C1354       C  0.76880045  0.03501563  0.24966081     0.13600
C1355       C  0.72241085  0.50094439  0.26317086    -0.24100
H1356       H  0.77337099  0.09309446  0.27481581     0.14900
H1357       H  0.84975853  0.03919954  0.20394384     0.14900
C1358       C  0.90495696  0.11909314  0.22586055    -0.24100
H1359       H  0.71189595  0.51685265  0.28174665     0.05100
H1360       H  0.71768554  0.46651147  0.27409617     0.08300
H1361       H  0.70159182  0.49329917  0.24310906     0.08300
H1362       H  0.92493533  0.14958964  0.23974749     0.08300
H1363       H  0.91531200  0.12945155  0.19980772     0.08300
H1364       H  0.91267647  0.09149137  0.23361951     0.05100
C1365       C  0.47681902  0.24945526  0.25041539    -0.20700
C1366       C  0.48539935  0.24614653  0.21773081    -0.07300
C1367       C  0.95085845  0.23224968  0.19837459     0.13600
C1368       C  0.90898238  0.21170947  0.21263111    -0.20800
C1369       C  0.89959891  0.20519185  0.24645669    -0.07300
C1370       C  0.93501220  0.23304055  0.26511918     0.13600
C1371       C  0.93241277  0.24879284  0.29826083    -0.24100
H1372       H  0.50302715  0.26683484  0.26574625     0.14900
H1373       H  0.88305403  0.19667820  0.19714765     0.14900
C1374       C  0.95717907  0.23544992  0.16215447    -0.24100
H1375       H  0.95587742  0.28828531  0.29833425     0.05100
H1376       H  0.94079889  0.22969802  0.31643681     0.08300
H1377       H  0.90140769  0.24453764  0.30571383     0.08300
H1378       H  0.46951500  0.20706682  0.15500543     0.08300
H1379       H  0.48086966  0.26885836  0.15115162     0.08300
H1380       H  0.92689859  0.22397470  0.15070038     0.05100
C1381       C  0.85181734  0.13273973  0.35076034    -0.20700
C1382       C  0.83175861  0.15345969  0.36734953    -0.07300
C1383       C  0.81314987  0.17382688  0.34776148     0.13600
C1384       C  0.81729522  0.17436358  0.31393046    -0.20800
C1385       C  0.84432982  0.16173946  0.29739236    -0.07300
C1386       C  0.86079537  0.13891695  0.31725207     0.13600
C1387       C  0.88783775  0.11964184  0.30473768    -0.24100
H1388       H  0.86070634  0.11041058  0.36384712     0.14900
H1389       H  0.79835671  0.18468938  0.30079380     0.14900
C1390       C  0.78756619  0.19426808  0.36156744    -0.24100
H1391       H  0.89927685  0.10608537  0.32439351     0.05100
H1392       H  0.91728629  0.14874760  0.29116380     0.08300
H1393       H  0.86903225  0.08813002  0.29081824     0.08300
H1394       H  0.80528146  0.22053708  0.37934392     0.08300
H1395       H  0.75601475  0.16470199  0.37270543     0.08300
H1396       H  0.78075060  0.21394399  0.34262485     0.05100
C1397       C  0.70448291  0.05638334  0.42025051    -0.20700
C1398       C  0.69181905  0.07802599  0.44294350    -0.07300
C1399       C  0.72348756  0.12549452  0.45084335     0.13600
C1400       C  0.76531983  0.14853700  0.43630685    -0.20800
C1401       C  0.77979069  0.12534841  0.41644322    -0.07300
C1402       C  0.74725724  0.07936889  0.40631241     0.13600
C1403       C  0.75609204  0.05343809  0.38072382    -0.24100
H1404       H  0.68053047  0.02134777  0.41291600     0.14900
H1405       H  0.78717752  0.18536712  0.44151295     0.14900
C1406       C  0.71523824  0.15329204  0.47529947    -0.24100
H1407       H  0.72875389  0.01569961  0.37986287     0.05100
H1408       H  0.78462021  0.05135297  0.38520332     0.08300
H1409       H  0.76072879  0.07211139  0.35662469     0.08300
H1410       H  0.70391323  0.13174024  0.49893846     0.08300
H1411       H  0.69179016  0.16234355  0.46698083     0.08300
H1412       H  0.74459067  0.18824940  0.47930020     0.05100
C1413       C  0.90064186  0.25762262  0.45880912    -0.20700
C1414       C  0.92613166  0.29682366  0.43629655    -0.07300
C1415       C  0.91833491  0.29064896  0.40366003     0.13600
C1416       C  0.88533379  0.24540213  0.39447387    -0.20800
C1417       C  0.85806624  0.20483295  0.41713217    -0.07300
C1418       C  0.86702722  0.21299125  0.45038623     0.13600
C1419       C  0.84355931  0.17633302  0.47883686    -0.24100
H1420       H  0.90577644  0.26285158  0.48412016     0.14900
H1421       H  0.88260165  0.24228082  0.36899113     0.14900
C1422       C  0.94495756  0.33197222  0.37846422    -0.24100
H1423       H  0.86577000  0.16761142  0.49022719     0.05100
H1424       H  0.81576216  0.14273130  0.47290096     0.08300
H1425       H  0.83148493  0.19148601  0.49685043     0.08300
H1426       H  0.47381008  0.35102555  0.37803852     0.08300
H1427       H  0.94150448  0.36309693  0.38341759     0.08300
H1428       H  0.93507632  0.32165747  0.35388853     0.05100
C1429       C  0.86246248  0.07450048  0.45922609    -0.20700
C1430       C  0.90641755  0.10084311  0.45038544    -0.07300
C1431       C  0.92360957  0.13935488  0.42659859     0.13600
C1432       C  0.89628950  0.15049848  0.41197279    -0.20800
C1433       C  0.85120727  0.12527256  0.42027409    -0.07300
C1434       C  0.83396339  0.08482687  0.44457981     0.13600
C1435       C  0.78710854  0.05033847  0.45636169    -0.24100
H1436       H  0.85017580  0.04382847  0.47699707     0.14900
H1437       H  0.91079737  0.18071903  0.39375574     0.14900
C1438       C  0.97114969  0.16976436  0.41692013    -0.24100
H1439       H  0.76958708  0.02600741  0.43772191     0.05100
H1440       H  0.77085279  0.06863967  0.46518713     0.08300
H1441       H  0.78321936  0.02548705  0.47724673     0.08300
H1442       H  0.98177936  0.14798162  0.40446026     0.08300
H1443       H  0.98903351  0.18335542  0.43860944     0.08300
H1444       H  0.97955179  0.20161660  0.40017831     0.05100
C1445       C  0.79501335  0.43510841  0.57136787    -0.20700
C1446       C  0.81035496  0.40825051  0.55684551    -0.07300
C1447       C  0.78041193  0.35757866  0.55539661     0.13600
C1448       C  0.73701584  0.33721259  0.56576280    -0.20800
C1449       C  0.72043173  0.36426289  0.57832457    -0.07300
C1450       C  0.75137808  0.41409125  0.58273153     0.13600
C1451       C  0.74020996  0.44693819  0.59929657    -0.24100
H1452       H  0.81725619  0.47321103  0.57388331     0.14900
H1453       H  0.71632771  0.29866434  0.56475016     0.14900
C1454       C  0.79292280  0.32278220  0.54393703    -0.24100
H1455       H  0.75085859  0.48022751  0.58336649     0.05100
H1456       H  0.75711970  0.45774064  0.62163129     0.08300
H1457       H  0.70560622  0.43023836  0.60586899     0.08300
H1458       H  0.81843585  0.32477818  0.55829666     0.08300
H1459       H  0.80349030  0.33098167  0.51791102     0.08300
H1460       H  0.76583648  0.28447778  0.54681186     0.05100
C1461       C  0.63959657  0.27915565  0.54710548    -0.20700
C1462       C  0.64547946  0.28335510  0.58050738    -0.07300
C1463       C  0.62131061  0.23903370  0.60061545     0.13600
C1464       C  0.58888340  0.19641391  0.58793656    -0.20800
C1465       C  0.57979987  0.19565933  0.55559864    -0.07300
C1466       C  0.60617781  0.23789932  0.53497329     0.13600
C1467       C  0.59887065  0.23997560  0.49974625    -0.24100
H1468       H  0.65914973  0.31037732  0.53034544     0.14900
H1469       H  0.57188245  0.16261679  0.60303057     0.14900
C1470       C  0.63195850  0.23356948  0.63404946    -0.24100
H1471       H  0.62105117  0.27651581  0.48735417     0.05100
H1472       H  0.56554265  0.23109971  0.49738057     0.08300
H1473       H  0.60404330  0.21401798  0.48708364     0.08300
H1474       H  0.61965719  0.24989690  0.65047749     0.08300
H1475       H  0.66710349  0.24991061  0.63425106     0.08300
H1476       H  0.61658290  0.19497219  0.64320524     0.05100
C1477       C  0.63567043  0.40905713  0.53431339    -0.20700
C1478       C  0.59259888  0.38609183  0.54542712    -0.07300
C1479       C  0.57493109  0.34613740  0.56815728     0.13600
C1480       C  0.60183099  0.33248144  0.58094229    -0.20800
C1481       C  0.64716197  0.35926424  0.57390127    -0.07300
C1482       C  0.66291872  0.39489744  0.54648953     0.13600
C1483       C  0.70438864  0.41425544  0.52547363    -0.24100
H1484       H  0.64808156  0.43828751  0.51538466     0.14900
H1485       H  0.58714461  0.30049391  0.59771168     0.14900
C1486       C  0.52774736  0.31765948  0.57909419    -0.24100
H1487       H  0.70114036  0.42461523  0.50046582     0.05100
H1488       H  0.71329613  0.38703590  0.52219452     0.08300
H1489       H  0.73066515  0.44780368  0.53412897     0.08300
H1490       H  0.50851271  0.30514991  0.55794485     0.08300
H1491       H  0.51930828  0.34061014  0.59244703     0.08300
H1492       H  0.51891686  0.28532454  0.59548517     0.05100
C1493       C  0.53808504  0.49538733  0.97787775    -0.20700
C1494       C  0.51876745  0.01931969  0.96513431    -0.07300
C1495       C  0.00277747  0.03880150  0.98975712     0.13600
C1496       C  0.99609564  0.02103869  0.02215813    -0.20800
C1497       C  0.51380098  0.49451186  0.03400587    -0.07300
C1498       C  0.53691803  0.48293468  0.01092184     0.13600
C1499       C  0.55806393  0.45434080  0.01787141    -0.24100
H1500       H  0.55214004  0.48234917  0.96082324     0.14900
H1501       H  0.97925920  0.03178692  0.03843359     0.14900
C1502       C  0.99611900  0.08082861  0.98464936    -0.24100
H1503       H  0.58052190  0.45866778  0.99732512     0.05100
H1504       H  0.53343955  0.41517870  0.02087026     0.08300
H1505       H  0.57824558  0.46602276  0.03832077     0.08300
H1506       H  0.96133091  0.06751376  0.98711776     0.08300
H1507       H  0.01123426  0.10378099  0.96210654     0.08300
H1508       H  0.01154487  0.10631825  0.00349811     0.05100
C1509       C  0.70663212  0.34496229  0.64574406    -0.20700
C1510       C  0.67133884  0.34078528  0.62979812    -0.07300
C1511       C  0.63906470  0.33995565  0.65132940     0.13600
C1512       C  0.63695061  0.32786985  0.68463333    -0.20800
C1513       C  0.67264331  0.33357227  0.70017374    -0.07300
C1514       C  0.70995910  0.34798057  0.67923046     0.13600
C1515       C  0.75380258  0.36449722  0.69040791    -0.24100
H1516       H  0.73342248  0.34693562  0.63227458     0.14900
H1517       H  0.60874417  0.32109909  0.69883042     0.14900
C1518       C  0.61393233  0.36362994  0.64376503    -0.24100
H1519       H  0.76606515  0.34227365  0.68088576     0.05100
H1520       H  0.77639804  0.40272329  0.68103803     0.08300
H1521       H  0.75460204  0.36227191  0.71662151     0.08300
H1522       H  0.58003361  0.33601465  0.64062598     0.08300
H1523       H  0.62985647  0.39215811  0.62363843     0.08300
H1524       H  0.61245550  0.38364715  0.66412059     0.05100
C1525       C  0.96020318  0.42021040  0.86916490    -0.20700
C1526       C  0.94844444  0.37943590  0.88976172    -0.07300
C1527       C  0.94947527  0.38369650  0.92307722     0.13600
C1528       C  0.96624568  0.42964933  0.93465388    -0.20800
C1529       C  0.98596078  0.47291864  0.91376408    -0.07300
C1530       C  0.97780327  0.46639460  0.88029794     0.13600
C1531       C  0.98820244  0.50661600  0.85507673    -0.24100
H1532       H  0.95567792  0.41566528  0.84375774     0.14900
H1533       H  0.46643677  0.43309429  0.96259971     0.14900
C1534       C  0.43296002  0.34118534  0.95024582    -0.24100
H1535       H  0.97960843  0.49339938  0.83084111     0.05100
H1536       H  0.02288165  0.53312300  0.85253682     0.08300
H1537       H  0.96942423  0.52351808  0.86081597     0.08300
H1538       H  0.94933393  0.32101426  0.94235855     0.08300
H1539       H  0.39844968  0.31583790  0.94716847     0.08300
H1540       H  0.43589416  0.35156044  0.97543199     0.05100
C1541       C  0.64505598  0.09936208  0.91163588    -0.20700
C1542       C  0.65199875  0.07335230  0.88883498    -0.07300
C1543       C  0.61731372  0.03004063  0.88007727     0.13600
C1544       C  0.57626295  0.01442711  0.89382826    -0.20800
C1545       C  0.56730274  0.04262786  0.91433556    -0.07300
C1546       C  0.60384932  0.08437917  0.92518132     0.13600
C1547       C  0.60123856  0.11366000  0.95138804    -0.24100
H1548       H  0.67249226  0.13188049  0.91913136     0.14900
H1549       H  0.55150641  0.48068135  0.88840250     0.14900
C1550       C  0.62345059  0.99906850  0.85713709    -0.24100
H1551       H  0.63232393  0.14802131  0.95286720     0.05100
H1552       H  0.59334030  0.09324370  0.97523916     0.08300
H1553       H  0.57741645  0.12373012  0.94699587     0.08300
H1554       H  0.64613142  0.98936884  0.86639628     0.08300
H1555       H  0.63620400  0.01898271  0.83299639     0.08300
H1556       H  0.59255913  0.46609743  0.85470893     0.05100
C1557       C  0.95885806  0.03983476  0.92471137    -0.20700
C1558       C  0.00278625  0.05839402  0.91553478    -0.07300
C1559       C  0.02467492  0.10225013  0.89381889     0.13600
C1560       C  0.00221468  0.12472232  0.88430681    -0.20800
C1561       C  0.95911566  0.10545026  0.89411631    -0.07300
C1562       C  0.93732473  0.06274692  0.91491401     0.13600
C1563       C  0.89119343  0.04131327  0.92744260    -0.24100
H1564       H  0.94105402  0.00674738  0.94045502     0.14900
H1565       H  0.01799238  0.15697103  0.86766667     0.14900
C1566       C  0.07006267  0.12659590  0.87800099    -0.24100
H1567       H  0.87992236  0.00963621  0.94516292     0.05100
H1568       H  0.87016970  0.02868543  0.90741646     0.08300
H1569       H  0.88764480  0.06890497  0.93953276     0.08300
H1570       H  0.07822972  0.10123831  0.86830494     0.08300
H1571       H  0.59413416  0.15021413  0.89507737     0.08300
H1572       H  0.07501454  0.15128562  0.85667637     0.05100
C1573       C  0.68740774  0.28904972  0.78569773    -0.20700
C1574       C  0.68604247  0.29319357  0.75177046    -0.07300
C1575       C  0.69730267  0.26321332  0.73434604     0.13600
C1576       C  0.71783474  0.24195051  0.74956305    -0.20800
C1577       C  0.72379133  0.24401770  0.78229573    -0.07300
C1578       C  0.70666948  0.26626851  0.80085471     0.13600
C1579       C  0.70901577  0.26676737  0.83679611    -0.24100
H1580       H  0.67608925  0.30720886  0.80056584     0.14900
H1581       H  0.72886434  0.22256924  0.73558337     0.14900
C1582       C  0.68518223  0.24637291  0.70134202    -0.24100
H1583       H  0.69134773  0.28245692  0.84791418     0.05100
H1584       H  0.74288150  0.28923420  0.84237241     0.08300
H1585       H  0.69474683  0.22926181  0.84791119     0.08300
H1586       H  0.66347623  0.25567606  0.69124524     0.08300
H1587       H  0.66744148  0.20616875  0.70277258     0.08300
H1588       H  0.71421176  0.26021003  0.68451719     0.05100
C1589       C  0.61876809  0.33269540  0.78053844    -0.20700
C1590       C  0.62513107  0.30791486  0.75556222    -0.07300
C1591       C  0.58816262  0.26226860  0.74985380     0.13600
C1592       C  0.54740557  0.24984643  0.76299709    -0.20800
C1593       C  0.54173425  0.27850045  0.78416097    -0.07300
C1594       C  0.57804896  0.31933893  0.79424273     0.13600
C1595       C  0.57426961  0.34972224  0.81891774    -0.24100
H1596       H  0.64561659  0.36283022  0.79030946     0.14900
H1597       H  0.01944781  0.21315930  0.75764614     0.14900
C1598       C  0.58974224  0.22485431  0.73088609    -0.24100
H1599       H  0.60589635  0.38215305  0.82259207     0.05100
H1600       H  0.56083817  0.32811525  0.84247871     0.08300
H1601       H  0.55309364  0.36243634  0.81088056     0.08300
H1602       H  0.61100116  0.21428992  0.74153209     0.08300
H1603       H  0.59919405  0.23780286  0.70533798     0.08300
H1604       H  0.55784016  0.19090235  0.73140742     0.05100
C1605       C  0.71314303  0.46458466  0.75696661    -0.20700
C1606       C  0.74475060  0.47437076  0.77792380    -0.07300
C1607       C  0.75727938  0.43966733  0.78192010     0.13600
C1608       C  0.73649062  0.39640518  0.76639012    -0.20800
C1609       C  0.70155112  0.38362430  0.74757670    -0.07300
C1610       C  0.69238668  0.42137616  0.74125307     0.13600
C1611       C  0.66052653  0.41803948  0.71848780    -0.24100
H1612       H  0.70563651  0.99138282  0.75161011     0.14900
H1613       H  0.74821804  0.37238574  0.76963739     0.14900
C1614       C  0.79219943  0.44644604  0.80290625    -0.24100
H1615       H  0.65676776  0.44982207  0.71820620     0.05100
H1616       H  0.62820105  0.38627371  0.72552017     0.08300
H1617       H  0.67264901  0.41815366  0.69369735     0.08300
H1618       H  0.78442635  0.45150262  0.82787963     0.08300
H1619       H  0.82346130  0.47784557  0.79277023     0.08300
H1620       H  0.79594091  0.41463646  0.80432760     0.05100
Zr1621     Zr  0.76971334  0.63132147  0.80934701     2.17500
O1622       O  0.72881231  0.61042960  0.76200618    -0.51700
O1623       O  0.70457700  0.59411902  0.84571297    -0.74900
O1624       O  0.74934296  0.54910794  0.79255172    -0.81700
O1625       O  0.78141710  0.75636239  0.81350244    -0.83500
O1626       O  0.79990959  0.53341866  0.80674116    -0.79100
O1627       O  0.74313218  0.68416155  0.79159715    -0.90700
O1628       O  0.72335004  0.61021133  0.89691227    -0.76700
O1629       O  0.78579418  0.59610606  0.85370649    -0.86200
O1630       O  0.78268395  0.68088729  0.85322371    -0.85900
O1631       O  0.83378049  0.63366330  0.79030934    -0.72600
O1632       O  0.82935013  0.71114308  0.79125928    -0.84800
Zr1633     Zr  0.92232691  0.72467259  0.86257521     2.26400
Zr1634     Zr  0.84987515  0.59914370  0.83537411     2.06300
Zr1635     Zr  0.84223582  0.75898598  0.83590856     2.10000
Zr1636     Zr  0.79923865  0.64607845  0.89716050     1.78800
O1637       O  0.87098440  0.82819721  0.79620951    -0.93600
O1638       O  0.76784841  0.56737370  0.92727857    -0.41400
O1639       O  0.85916213  0.72469136  0.88043284    -0.78000
O1640       O  0.86214796  0.64567929  0.88091737    -0.96700
O1641       O  0.91001896  0.67713730  0.81798634    -0.90000
O1642       O  0.90671209  0.76186634  0.81877454    -0.92800
C1643       C  0.69581853  0.59379924  0.87595686     1.00900
C1644       C  0.75070742  0.72659277  0.79747190     1.13800
C1645       C  0.76556489  0.52180768  0.79354391     1.04600
O1646       O  0.81570919  0.52338188  0.86927520    -0.95000
O1647       O  0.90322394  0.59616206  0.86453014    -0.90700
O1648       O  0.94736913  0.67093945  0.88141397    -0.83900
C1649       C  0.93503971  0.62602037  0.87944367     1.11300
O1650       O  0.86677625  0.71381705  0.72249262    -0.97000
Zr1651     Zr  0.89380378  0.71345183  0.77469263     1.88900
O1652       O  0.98857991  0.76065164  0.82754142    -0.73600
O1653       O  0.89228765  0.58036681  0.79912242    -0.52900
O1654       O  0.91013121  0.66832055  0.73768830    -0.97600
O1655       O  0.92597141  0.79312097  0.74564061    -0.54800
O1656       O  0.96979714  0.74511455  0.77634100    -0.74100
C1657       C  0.99750235  0.76061144  0.79739354     0.98200
O1658       O  0.96162979  0.75161934  0.91048090    -0.62900
O1659       O  0.81369897  0.79070865  0.87498420    -0.57800
O1660       O  0.94229083  0.80392410  0.88157900    -0.94400
O1661       O  0.89510293  0.82366643  0.86377275    -0.92900
O1662       O  0.78574509  0.69710779  0.93055594    -0.93200
O1663       O  0.82407782  0.65027923  0.95074758    -0.92000
C1664       C  0.92764055  0.83228858  0.87875814     1.17100
H1665       H  0.75865361  0.68433678  0.85891223     0.33000
H1666       H  0.86834721  0.63178547  0.89922389     0.43900
H1667       H  0.93013468  0.79485004  0.81342952     0.37400
H1668       H  0.82851428  0.61470898  0.77200091     0.33900
H1669       H  0.74348855  0.54478819  0.91522999     0.25600
H1670       H  0.88656944  0.54856793  0.80799399     0.31600
H1671       H  0.92975517  0.69274671  0.72020120     0.37500
H1672       H  0.75494379  0.67716091  0.93817004     0.32000
H1673       H  0.81410753  0.81795672  0.86295457     0.30800
H1674       H  0.87976077  0.85642690  0.80894722     0.32500
H1675       H  0.95041629  0.81541815  0.75770814     0.31500
H1676       H  0.85285589  0.68026286  0.94905862     0.35500
H1677       H  0.94675121  0.72347455  0.92674136     0.28200
H1678       H  0.70185847  0.57927064  0.76853915     0.32400
H1679       H  0.83551539  0.69010934  0.72596723     0.35300
H1680       H  0.78293179  0.76545735  0.87929537     0.27900
H1681       H  0.98984245  0.75548426  0.90486979     0.40800
H1682       H  0.78533199  0.51379687  0.87308894     0.30800
H1683       H  0.78930179  0.55794481  0.92374314     0.38400
H1684       H  0.90465428  0.80273311  0.74919911     0.30300
H1685       H  0.87826574  0.57380975  0.77867664     0.30400
H1686       H  0.74474639  0.60252648  0.74616571     0.30600
C1687       C  0.67064633  0.82769848  0.73932034    -0.02900
C1688       C  0.51958043  0.52594792  0.92739431    -0.02900
Zr1689     Zr  0.96154753  0.53691388  0.52773695     2.17500
O1690       O  0.93235020  0.55383548  0.57556398    -0.51700
O1691       O  0.93296116  0.57356699  0.49272894    -0.74900
O1692       O  0.51517644  0.61977843  0.54597485    -0.81700
O1693       O  0.86419680  0.90942874  0.52396544    -0.83500
O1694       O  0.58197106  0.64102687  0.52574437    -0.79100
O1695       O  0.88410703  0.97937581  0.54651509    -0.90700
O1696       O  0.94957750  0.56788323  0.44044209    -0.76700
O1697       O  0.51542906  0.57661436  0.48304416    -0.86200
O1698       O  0.93630546  0.99279357  0.48060064    -0.85900
O1699       O  0.52355359  0.53773290  0.54481821    -0.72600
O1700       O  0.94729927  0.95773562  0.54147992    -0.84800
Zr1701     Zr  0.53953154  0.95240614  0.46785230     2.26400
Zr1702     Zr  0.57584149  0.57467854  0.49951847     2.06300
Zr1703     Zr  0.92446094  0.91499249  0.49432373     2.10000
Zr1704     Zr  0.99041357  0.52976231  0.43833512     1.78800
O1705       O  0.88818365  0.83788345  0.52690484    -0.93600
O1706       O  0.54003162  0.60793393  0.40901107    -0.41400
O1707       O  0.97840701  0.95342267  0.45040668    -0.78000
O1708       O  0.55253054  0.53054989  0.45288009    -0.96700
O1709       O  0.56512380  0.49743315  0.51473960    -0.90000
O1710       O  0.48548924  0.91295205  0.51188628    -0.92800
C1711       C  0.93190807  0.57972570  0.46221415     1.00900
C1712       C  0.85570430  0.93490430  0.54160369     1.13800
C1713       C  0.55649503  0.64946978  0.54170504     1.04600
O1714       O  0.61335226  0.64766557  0.46273128    -0.95000
O1715       O  0.63630060  0.57863649  0.47274032    -0.90700
O1716       O  0.61819703  0.50806037  0.45212281    -0.83900
C1717       C  0.64594449  0.55255847  0.45707379     1.11300
O1718       O  0.49087281  0.96874242  0.61203941    -0.97000
Zr1719     Zr  0.50995841  0.95906557  0.55738420     1.88900
O1720       O  0.56886376  0.91717600  0.50320727    -0.73600
O1721       O  0.63144831  0.60082395  0.53705017    -0.52900
O1722       O  0.57103253  0.50607767  0.59069342    -0.97600
O1723       O  0.95569464  0.87854335  0.58539772    -0.54800
O1724       O  0.54999845  0.92006868  0.55551151    -0.74100
C1725       C  0.56886856  0.90974550  0.53372510     0.98200
O1726       O  0.56071404  0.92884032  0.41909375    -0.62900
O1727       O  0.86957047  0.89041890  0.45616115    -0.57800
O1728       O  0.48859725  0.87227189  0.44815590    -0.94400
O1729       O  0.92099237  0.85487451  0.46233633    -0.92900
O1730       O  0.93371869  0.99213631  0.40188514    -0.93200
O1731       O  0.51237543  0.52441764  0.38314660    -0.92000
C1732       C  0.94711485  0.84505912  0.44892464     1.17100
H1733       H  0.90953855  0.98898366  0.47491483     0.33000
H1734       H  0.57400817  0.54599689  0.43489588     0.43900
H1735       H  0.97741993  0.87932818  0.51494019     0.37400
H1736       H  0.53392887  0.55628377  0.56330920     0.33900
H1737       H  0.52417302  0.61074581  0.39132131     0.25600
H1738       H  0.64969173  0.63641987  0.53258674     0.31600
H1739       H  0.59535815  0.01179625  0.57669931     0.37500
H1740       H  0.92629810  0.45427202  0.40455808     0.32000
H1741       H  0.84911678  0.85543577  0.46193603     0.30800
H1742       H  0.86537716  0.81489540  0.51386620     0.32500
H1743       H  0.47237577  0.87751247  0.60404879     0.31500
H1744       H  0.51993661  0.49932689  0.38511209     0.35500
H1745       H  0.57236966  0.95735217  0.40326829     0.28200
H1746       H  0.93435673  0.58488601  0.56974455     0.32400
H1747       H  0.46094516  0.96098182  0.61180835     0.35300
H1748       H  0.85334691  0.90591551  0.46208205     0.27900
H1749       H  0.58581439  0.92673709  0.42423287     0.40800
H1750       H  0.61376107  0.63622812  0.44120856     0.30800
H1751       H  0.54244417  0.63203620  0.42381483     0.44700
H1752       H  0.95092132  0.85404786  0.57018342     0.30300
H1753       H  0.61651193  0.59612639  0.55851008     0.30400
H1754       H  0.95348232  0.56136349  0.59171843     0.30600
C1755       C  0.82905336  0.65051865  0.40640933    -0.02900
C1756       C  0.67119981  0.83962725  0.59223717    -0.02900
Zr1757     Zr  0.60179346  0.78811068  0.14087832     2.17500
O1758       O  0.56763064  0.77468184  0.09037707    -0.51700
O1759       O  0.53775581  0.76066610  0.17721491    -0.74900
O1760       O  0.56990950  0.70486789  0.12583661    -0.81700
O1761       O  0.62924620  0.91658476  0.13489776    -0.83500
O1762       O  0.61654119  0.68166549  0.13862507    -0.79100
O1763       O  0.57806123  0.84209367  0.12235554    -0.90700
O1764       O  0.55630326  0.77128210  0.22851309    -0.76700
O1765       O  0.61302383  0.74809576  0.18539291    -0.86200
O1766       O  0.62001525  0.83979183  0.18358918    -0.85900
O1767       O  0.66103118  0.78035045  0.12247589    -0.72600
O1768       O  0.66534802  0.86318294  0.12065545    -0.84800
Zr1769     Zr  0.75422938  0.86627707  0.19194499     2.26400
Zr1770     Zr  0.67285945  0.74173150  0.16772571     2.06300
Zr1771     Zr  0.68332068  0.91329238  0.16414505     2.10000
Zr1772     Zr  0.63175902  0.80046423  0.22781310     1.78800
O1773       O  0.72535692  0.98410640  0.12604209    -0.93600
O1774       O  0.59962152  0.72160876  0.25784031    -0.41400
O1775       O  0.69559302  0.87525646  0.20946725    -0.78000
O1776       O  0.69043109  0.79138715  0.21186887    -0.96700
O1777       O  0.73671309  0.81579304  0.14859139    -0.90000
O1778       O  0.74324477  0.90680186  0.14763787    -0.92800
C1779       C  0.52886164  0.75988556  0.20749181     1.00900
C1780       C  0.59372077  0.88779363  0.12299881     1.13800
C1781       C  0.58310761  0.67518022  0.12570118     1.04600
O1782       O  0.63613553  0.66800524  0.20389511    -0.95000
O1783       O  0.72755714  0.73564329  0.19433335    -0.90700
O1784       O  0.77605463  0.80938576  0.20998127    -0.83900
C1785       C  0.76199033  0.76409840  0.20768871     1.11300
O1786       O  0.69710714  0.85139769  0.05227014    -0.97000
Zr1787     Zr  0.72500033  0.85567714  0.10468161     1.88900
O1788       O  0.81900725  0.89789846  0.15590677    -0.73600
O1789       O  0.70491481  0.71011795  0.13172207    -0.52900
O1790       O  0.73722032  0.80594937  0.06909310    -0.97600
O1791       O  0.76078128  0.93562021  0.07535384    -0.54800
O1792       O  0.80034636  0.88425614  0.10486682    -0.74100
C1793       C  0.82815205  0.89834008  0.12576670     0.98200
O1794       O  0.79483361  0.88390002  0.23942316    -0.62900
O1795       O  0.65347889  0.95240209  0.19514890    -0.57800
O1796       O  0.78025241  0.94757371  0.20978614    -0.94400
O1797       O  0.73325258  0.97060955  0.19774520    -0.92900
O1798       O  0.62021625  0.85229542  0.26178912    -0.93200
O1799       O  0.65832401  0.80703897  0.28089985    -0.92000
C1800       C  0.76622183  0.97655610  0.21091781     1.17100
H1801       H  0.59810049  0.84682275  0.18908364     0.33000
H1802       H  0.69603785  0.77674013  0.23015932     0.43900
H1803       H  0.76858208  0.93830557  0.14205107     0.37400
H1804       H  0.65350638  0.76071925  0.10438496     0.33900
H1805       H  0.57564535  0.69920442  0.24542277     0.25600
H1806       H  0.68874410  0.67478687  0.13767514     0.31600
H1807       H  0.75692724  0.79881603  0.08003568     0.37500
H1808       H  0.60898913  0.86769465  0.24761033     0.32000
H1809       H  0.66317580  0.98345465  0.18253550     0.30800
H1810       H  0.71245866  0.00400514  0.12913968     0.32500
H1811       H  0.77317408  0.93186754  0.05490434     0.31500
H1812       H  0.68992630  0.82748802  0.27680419     0.35500
H1813       H  0.82324250  0.91326848  0.23293489     0.28200
H1814       H  0.53767521  0.74743602  0.09542416     0.32400
H1815       H  0.66553074  0.83215713  0.05683033     0.35300
H1816       H  0.62205941  0.93301478  0.19370564     0.27900
H1817       H  0.78075497  0.89403957  0.25532263     0.40800
H1818       H  0.60529004  0.65311562  0.20066588     0.30800
H1819       H  0.62108985  0.71210177  0.25477867     0.38400
H1820       H  0.78614575  0.95659930  0.08706220     0.30300
H1821       H  0.69613236  0.71353822  0.11015910     0.30400
H1822       H  0.58135388  0.76189462  0.07637055     0.30600
C1823       C  0.50798135  0.98675738  0.07228269    -0.02900
C1824       C  0.85203986  0.66863072  0.26025394    -0.02900
C1825       C  0.88190037  0.91334727  0.08075309    -0.20700
C1826       C  0.87338190  0.91561662  0.11367914    -0.07300
C1827       C  0.90766892  0.93151945  0.13375523     0.13600
C1828       C  0.94918566  0.94874751  0.11980156    -0.20800
C1829       C  0.95888577  0.95324015  0.08608792    -0.07300
C1830       C  0.92314546  0.92848217  0.06717096     0.13600
C1831       C  0.92482299  0.91123605  0.03440430    -0.24100
H1832       H  0.85566655  0.89739207  0.06533864     0.14900
H1833       H  0.97503983  0.96241689  0.13536939     0.14900
C1834       C  0.90182921  0.93185978  0.16977871    -0.24100
H1835       H  0.89790239  0.87320029  0.03369934     0.05100
H1836       H  0.95374747  0.90971258  0.02888452     0.08300
H1837       H  0.92135206  0.93374573  0.01541692     0.08300
H1838       H  0.87901575  0.89451080  0.18062703     0.08300
H1839       H  0.88991348  0.95604403  0.17552281     0.08300
H1840       H  0.93239406  0.94542050  0.18126527     0.05100
C1841       C  0.58766107  0.62148682  0.08883094    -0.20700
C1842       C  0.56130487  0.63168360  0.10769163    -0.07300
C1843       C  0.51678174  0.59900204  0.11020319     0.13600
C1844       C  0.50040673  0.55468038  0.09638484    -0.20800
C1845       C  0.52750285  0.53985952  0.08222895    -0.07300
C1846       C  0.57196671  0.57681550  0.07606608     0.13600
C1847       C  0.60545298  0.57130326  0.05806215    -0.24100
H1848       H  0.62181378  0.64817363  0.08531571     0.14900
H1849       H  0.96630457  0.53033135  0.09858386     0.14900
C1850       C  0.48659044  0.60960417  0.12847639    -0.24100
H1851       H  0.63176863  0.57912273  0.07361319     0.05100
H1852       H  0.61899070  0.59710725  0.03620277     0.08300
H1853       H  0.59318203  0.53509246  0.05073480     0.08300
H1854       H  0.48904648  0.64258957  0.11706620     0.08300
H1855       H  0.49483139  0.61526256  0.15382695     0.08300
H1856       H  0.95429442  0.57899335  0.13002827     0.05100
C1857       C  0.58176206  0.95604241  0.12050869    -0.20700
C1858       C  0.56951761  0.91009310  0.11082496    -0.07300
C1859       C  0.53347814  0.88695811  0.09251243     0.13600
C1860       C  0.51311435  0.91181048  0.08314199    -0.20800
C1861       C  0.52917099  0.96073803  0.08895553    -0.07300
C1862       C  0.56011020  0.97955873  0.11260964     0.13600
C1863       C  0.56496783  0.51716444  0.13634840    -0.24100
H1864       H  0.60677872  0.97274897  0.13690011     0.14900
H1865       H  0.98523622  0.89237987  0.06945002     0.14900
C1866       C  0.51721709  0.83737074  0.08115796    -0.24100
H1867       H  0.56256074  0.50282979  0.16158808     0.05100
H1868       H  0.54033465  0.52668501  0.13691725     0.08300
H1869       H  0.59735619  0.55020179  0.13137405     0.08300
H1870       H  0.50567927  0.81003481  0.10198742     0.08300
H1871       H  0.54328256  0.83748067  0.06645224     0.08300
H1872       H  0.98774264  0.82359436  0.06773716     0.05100
C1873       C  0.77656239  0.69704701  0.21011149    -0.20700
C1874       C  0.78643429  0.74197921  0.22052284    -0.07300
C1875       C  0.81956567  0.76390057  0.24152130     0.13600
C1876       C  0.83920437  0.73904039  0.25274626    -0.20800
C1877       C  0.82742588  0.69196159  0.24435627    -0.07300
C1878       C  0.79770249  0.67322690  0.21973393     0.13600
C1879       C  0.78990024  0.63232906  0.19942437    -0.24100
H1880       H  0.75300114  0.68088007  0.19260769     0.14900
H1881       H  0.86395241  0.75652553  0.26908922     0.14900
C1882       C  0.83453173  0.81325075  0.25278186    -0.24100
H1883       H  0.78285016  0.63886736  0.17472089     0.05100
H1884       H  0.76133687  0.59780266  0.20970209     0.08300
H1885       H  0.81830931  0.62946514  0.19510671     0.08300
H1886       H  0.80730785  0.81308527  0.26569841     0.08300
H1887       H  0.84801445  0.84074982  0.23186555     0.08300
H1888       H  0.86012568  0.82426405  0.26958074     0.05100
C1889       C  0.79122027  0.58155096  0.26132590    -0.20700
C1890       C  0.83463572  0.61569405  0.25049586    -0.07300
C1891       C  0.85707702  0.59717249  0.23243635     0.13600
C1892       C  0.83353237  0.55123326  0.22093940    -0.20800
C1893       C  0.78994690  0.52055742  0.22929711    -0.07300
C1894       C  0.76884736  0.53466610  0.25112910     0.13600
C1895       C  0.72274236  0.00079999  0.26245650    -0.24100
H1896       H  0.77360273  0.59274683  0.27639268     0.14900
H1897       H  0.84965987  0.53884658  0.20519775     0.14900
C1898       C  0.90490660  0.61933098  0.22603411    -0.24100
H1899       H  0.71242653  0.01662178  0.28122986     0.05100
H1900       H  0.71888566  0.96680684  0.27341021     0.08300
H1901       H  0.70116976  0.99240171  0.24284965     0.08300
H1902       H  0.92498048  0.64920938  0.24035894     0.08300
H1903       H  0.91446646  0.63045369  0.19995303     0.08300
H1904       H  0.91321616  0.59184558  0.23264134     0.05100
C1905       C  0.47617236  0.74715207  0.25269741    -0.20700
C1906       C  0.48450028  0.74563737  0.21959522    -0.07300
C1907       C  0.95060131  0.73117857  0.19925352     0.13600
C1908       C  0.90882343  0.71141976  0.21352706    -0.20800
C1909       C  0.89960932  0.70499413  0.24734064    -0.07300
C1910       C  0.93515589  0.73279000  0.26590415     0.13600
C1911       C  0.93272185  0.74848731  0.29908791    -0.24100
H1912       H  0.50243125  0.76278942  0.26810370     0.14900
H1913       H  0.88277525  0.69642061  0.19812220     0.14900
C1914       C  0.95665637  0.73316709  0.16314909    -0.24100
H1915       H  0.95668748  0.78780562  0.29933918     0.05100
H1916       H  0.94054055  0.72883304  0.31727189     0.08300
H1917       H  0.90192339  0.74494710  0.30632548     0.08300
H1918       H  0.46808559  0.71301631  0.15502899     0.08300
H1919       H  0.48057677  0.77520778  0.15482805     0.08300
H1920       H  0.92646532  0.72196433  0.15162724     0.05100
C1921       C  0.85239825  0.63246603  0.35167398    -0.20700
C1922       C  0.83181770  0.65252553  0.36835538    -0.07300
C1923       C  0.81313770  0.67291322  0.34885319     0.13600
C1924       C  0.81780329  0.67429542  0.31500217    -0.20800
C1925       C  0.84483210  0.66176116  0.29841410    -0.07300
C1926       C  0.86155593  0.63907574  0.31817200     0.13600
C1927       C  0.88912933  0.62046396  0.30556078    -0.24100
H1928       H  0.86155839  0.61032650  0.36467106     0.14900
H1929       H  0.79922810  0.68515577  0.30186462     0.14900
C1930       C  0.78702175  0.69262723  0.36278528    -0.24100
H1931       H  0.90089775  0.60727246  0.32518979     0.05100
H1932       H  0.91841412  0.64973002  0.29192008     0.08300
H1933       H  0.87063661  0.58888751  0.29162878     0.08300
H1934       H  0.80428608  0.71848567  0.38089083     0.08300
H1935       H  0.75542672  0.66262242  0.37354646     0.08300
H1936       H  0.78027898  0.71256640  0.34399353     0.05100
C1937       C  0.70466924  0.55599535  0.42085523    -0.20700
C1938       C  0.69208893  0.57752960  0.44369193    -0.07300
C1939       C  0.72382142  0.62460532  0.45204305     0.13600
C1940       C  0.76560719  0.64767810  0.43751281    -0.20800
C1941       C  0.78002823  0.62454945  0.41751918    -0.07300
C1942       C  0.74753582  0.57871838  0.40723876     0.13600
C1943       C  0.75657998  0.55265567  0.38186886    -0.24100
H1944       H  0.68062825  0.52122466  0.41322644     0.14900
H1945       H  0.78737507  0.68446724  0.44280667     0.14900
C1946       C  0.71567752  0.65176450  0.47708762    -0.24100
H1947       H  0.72948267  0.51470802  0.38133443     0.05100
H1948       H  0.78535526  0.55108356  0.38637461     0.08300
H1949       H  0.76092298  0.57088115  0.35765123     0.08300
H1950       H  0.70354915  0.62919677  0.50033805     0.08300
H1951       H  0.69289850  0.66196987  0.46892187     0.08300
H1952       H  0.74525383  0.68604305  0.48179820     0.05100
C1953       C  0.89966099  0.75790719  0.45935248    -0.20700
C1954       C  0.92498410  0.79660756  0.43648002    -0.07300
C1955       C  0.91766042  0.78974916  0.40390768     0.13600
C1956       C  0.88517732  0.74420074  0.39501277    -0.20800
C1957       C  0.85806311  0.70395454  0.41792102    -0.07300
C1958       C  0.86673722  0.71271068  0.45116617     0.13600
C1959       C  0.84348951  0.67636583  0.47981416    -0.24100
H1960       H  0.90448902  0.76387906  0.48462655     0.14900
H1961       H  0.88274571  0.74070899  0.36955182     0.14900
C1962       C  0.94408022  0.83084279  0.37850659    -0.24100
H1963       H  0.86619331  0.66921957  0.49195649     0.05100
H1964       H  0.81667432  0.64194047  0.47388883     0.08300
H1965       H  0.83010275  0.69100269  0.49718049     0.08300
H1966       H  0.47781287  0.84533853  0.37942942     0.08300
H1967       H  0.93927365  0.86125875  0.38264117     0.08300
H1968       H  0.93515448  0.81972157  0.35389830     0.05100
C1969       C  0.86226506  0.57243135  0.45939349    -0.20700
C1970       C  0.90622640  0.59880704  0.45062243    -0.07300
C1971       C  0.92360555  0.63791707  0.42729266     0.13600
C1972       C  0.89643007  0.64965625  0.41307276    -0.20800
C1973       C  0.85133577  0.62439402  0.42129703    -0.07300
C1974       C  0.83394115  0.58351654  0.44528200     0.13600
C1975       C  0.78711533  0.54937368  0.45733078    -0.24100
H1976       H  0.84985409  0.54130124  0.47679263     0.14900
H1977       H  0.91104949  0.68021237  0.39511870     0.14900
C1978       C  0.97115242  0.66830419  0.41765011    -0.24100
H1979       H  0.76921723  0.52498483  0.43882699     0.05100
H1980       H  0.77119185  0.56796212  0.46630002     0.08300
H1981       H  0.78327615  0.52452422  0.47820298     0.08300
H1982       H  0.98187301  0.64638610  0.40551089     0.08300
H1983       H  0.98895756  0.68230151  0.43932098     0.08300
H1984       H  0.97955019  0.69985734  0.40060323     0.05100
C1985       C  0.79519810  0.93622951  0.57294271    -0.20700
C1986       C  0.80969974  0.91004347  0.55640721    -0.07300
C1987       C  0.77935504  0.85964194  0.55432248     0.13600
C1988       C  0.73601496  0.83932673  0.56508470    -0.20800
C1989       C  0.72012826  0.86601023  0.57933700    -0.07300
C1990       C  0.75179970  0.91508556  0.58512594     0.13600
C1991       C  0.74153142  0.94715672  0.60372430    -0.24100
H1992       H  0.81787585  0.97391653  0.57632828     0.14900
H1993       H  0.71484411  0.80111436  0.56298085     0.14900
C1994       C  0.79165339  0.82499259  0.54223202    -0.24100
H1995       H  0.75365639  0.98219924  0.58946064     0.05100
H1996       H  0.75766052  0.95468617  0.62647640     0.08300
H1997       H  0.70690876  0.93138580  0.60973576     0.08300
H1998       H  0.81752856  0.82707446  0.55617245     0.08300
H1999       H  0.80171500  0.83321613  0.51608829     0.08300
H2000       H  0.76460883  0.78668034  0.54534318     0.05100
C2001       C  0.63708235  0.78174745  0.54761516    -0.20700
C2002       C  0.64425769  0.78559994  0.58094729    -0.07300
C2003       C  0.62063061  0.74092156  0.60089449     0.13600
C2004       C  0.58851659  0.69809829  0.58820195    -0.20800
C2005       C  0.57919487  0.69700522  0.55595745    -0.07300
C2006       C  0.60411501  0.73974956  0.53551163     0.13600
C2007       C  0.59555323  0.74130659  0.50056558    -0.24100
H2008       H  0.65563804  0.81346342  0.53093668     0.14900
H2009       H  0.57202037  0.66423231  0.60323152     0.14900
C2010       C  0.63143475  0.73505663  0.63425590    -0.24100
H2011       H  0.61608037  0.77821079  0.48823248     0.05100
H2012       H  0.56152570  0.73024813  0.49886681     0.08300
H2013       H  0.60197719  0.71651133  0.48752586     0.08300
H2014       H  0.61837440  0.75009217  0.65114466     0.08300
H2015       H  0.66662495  0.75200465  0.63451578     0.08300
H2016       H  0.61676081  0.69638773  0.64295781     0.05100
C2017       C  0.63763478  0.91441656  0.53577975    -0.20700
C2018       C  0.59401444  0.88996142  0.54530305    -0.07300
C2019       C  0.57573847  0.84912347  0.56722628     0.13600
C2020       C  0.60245457  0.83647170  0.58145391    -0.20800
C2021       C  0.64791375  0.86327281  0.57527960    -0.07300
C2022       C  0.66459514  0.90013451  0.54843753     0.13600
C2023       C  0.70700485  0.92091911  0.52845407    -0.24100
H2024       H  0.65056679  0.94457438  0.51749898     0.14900
H2025       H  0.58718215  0.80382835  0.59761299     0.14900
C2026       C  0.52781747  0.81760058  0.57485206    -0.24100
H2027       H  0.70629231  0.93615644  0.50423280     0.05100
H2028       H  0.71434050  0.89286667  0.52314446     0.08300
H2029       H  0.73319151  0.95193141  0.53931837     0.08300
H2030       H  0.51197500  0.80477101  0.55226075     0.08300
H2031       H  0.51541670  0.83816751  0.58675792     0.08300
H2032       H  0.51881801  0.78529192  0.59132316     0.05100
C2033       C  0.53602718  0.99244243  0.97790908    -0.20700
C2034       C  0.51977314  0.52131652  0.96542358    -0.07300
C2035       C  0.00183902  0.53763869  0.98861513     0.13600
C2036       C  0.99509990  0.51954857  0.02095378    -0.20800
C2037       C  0.51301097  0.99377706  0.03407342    -0.07300
C2038       C  0.53455951  0.98014923  0.01105938     0.13600
C2039       C  0.55397330  0.94991050  0.01845124    -0.24100
H2040       H  0.54958384  0.97868530  0.96100102     0.14900
H2041       H  0.97852103  0.53041893  0.03738391     0.14900
C2042       C  0.99628615  0.58052654  0.98394431    -0.24100
H2043       H  0.57437094  0.95082007  0.99755408     0.05100
H2044       H  0.52820435  0.91136274  0.02311314     0.08300
H2045       H  0.57563163  0.96294458  0.03802752     0.08300
H2046       H  0.96170810  0.56813407  0.98674386     0.08300
H2047       H  0.01139550  0.60350096  0.96141447     0.08300
H2048       H  0.01243734  0.60572699  0.00280059     0.05100
C2049       C  0.70589235  0.84556637  0.64680538    -0.20700
C2050       C  0.67059048  0.84155386  0.63094947    -0.07300
C2051       C  0.63771352  0.83905137  0.65275044     0.13600
C2052       C  0.63556037  0.82592345  0.68592645    -0.20800
C2053       C  0.67151868  0.83215623  0.70136634    -0.07300
C2054       C  0.70901782  0.84768601  0.68035327     0.13600
C2055       C  0.75302107  0.86499933  0.69149036    -0.24100
H2056       H  0.73287456  0.84813371  0.63322649     0.14900
H2057       H  0.60711077  0.81820835  0.70024277     0.14900
C2058       C  0.61211477  0.86234848  0.64580483    -0.24100
H2059       H  0.76626067  0.84412936  0.68121711     0.05100
H2060       H  0.77487277  0.90371511  0.68286241     0.08300
H2061       H  0.75368813  0.86157930  0.71768747     0.08300
H2062       H  0.57859254  0.83472825  0.64168231     0.08300
H2063       H  0.62851217  0.89225146  0.62654950     0.08300
H2064       H  0.60933898  0.88054162  0.66682370     0.05100
C2065       C  0.96376615  0.92029446  0.87111697    -0.20700
C2066       C  0.94959074  0.87959020  0.89239463    -0.07300
C2067       C  0.94904345  0.88444553  0.92563552     0.13600
C2068       C  0.96682864  0.93091026  0.93664587    -0.20800
C2069       C  0.98834844  0.97383796  0.91531297    -0.07300
C2070       C  0.98189177  0.96685185  0.88167804     0.13600
C2071       C  0.99531679  0.00708968  0.85568009    -0.24100
H2072       H  0.96061829  0.91534559  0.84562489     0.14900
H2073       H  0.46487963  0.93141411  0.96095288     0.14900
C2074       C  0.42993910  0.83970493  0.94772213    -0.24100
H2075       H  0.98796340  0.99353681  0.83141233     0.05100
H2076       H  0.03019731  0.03236081  0.85414809     0.08300
H2077       H  0.97751339  0.02555648  0.85975160     0.08300
H2078       H  0.94509473  0.82030222  0.94657753     0.08300
H2079       H  0.39541971  0.81530333  0.94418038     0.08300
H2080       H  0.43258244  0.84952970  0.97303149     0.05100
C2081       C  0.64448522  0.60225729  0.91051119    -0.20700
C2082       C  0.65141521  0.57591318  0.88799193    -0.07300
C2083       C  0.61682828  0.53210794  0.87974020     0.13600
C2084       C  0.57583057  0.51636573  0.89361702    -0.20800
C2085       C  0.56690658  0.54450714  0.91414692    -0.07300
C2086       C  0.60342336  0.58684655  0.92450573     0.13600
C2087       C  0.60096280  0.61651932  0.95050745    -0.24100
H2088       H  0.67187087  0.63521122  0.91759482     0.14900
H2089       H  0.55186584  0.97891307  0.88835739     0.14900
C2090       C  0.62305547  0.50061020  0.85736855    -0.24100
H2091       H  0.63198100  0.65109332  0.95164284     0.05100
H2092       H  0.59352470  0.59665438  0.97452776     0.08300
H2093       H  0.57699620  0.62633580  0.94603345     0.08300
H2094       H  0.64602793  0.49155001  0.86687057     0.08300
H2095       H  0.63548844  0.51982030  0.83300757     0.08300
H2096       H  0.59285018  0.96491658  0.85402920     0.05100
C2097       C  0.95770309  0.53954754  0.92462051    -0.20700
C2098       C  0.00136873  0.55772557  0.91483635    -0.07300
C2099       C  0.02338121  0.60178724  0.89334713     0.13600
C2100       C  0.00133925  0.62505963  0.88481442    -0.20800
C2101       C  0.95838477  0.60587739  0.89496033    -0.07300
C2102       C  0.93649366  0.56304992  0.91558978     0.13600
C2103       C  0.89075213  0.54228783  0.92892369    -0.24100
H2104       H  0.93989435  0.50630566  0.94022127     0.14900
H2105       H  0.01715822  0.65757835  0.86841107     0.14900
C2106       C  0.06812132  0.62518570  0.87642050    -0.24100
H2107       H  0.87946442  0.51023518  0.94630642     0.05100
H2108       H  0.86904467  0.53042021  0.90929617     0.08300
H2109       H  0.88819834  0.57003497  0.94167585     0.08300
H2110       H  0.07560204  0.59924232  0.86676804     0.08300
H2111       H  0.59253170  0.64976547  0.89322890     0.08300
H2112       H  0.07215462  0.64894640  0.85480131     0.05100
C2113       C  0.68635256  0.78784186  0.78708761    -0.20700
C2114       C  0.68538244  0.79219923  0.75307693    -0.07300
C2115       C  0.69722185  0.76273277  0.73566315     0.13600
C2116       C  0.71792284  0.74182428  0.75104604    -0.20800
C2117       C  0.72380418  0.74413234  0.78381010    -0.07300
C2118       C  0.70576284  0.76535623  0.80237507     0.13600
C2119       C  0.70667481  0.76430288  0.83848069    -0.24100
H2120       H  0.67451436  0.80553315  0.80193478     0.14900
H2121       H  0.72927628  0.72266847  0.73715158     0.14900
C2122       C  0.68587000  0.74639133  0.70241491    -0.24100
H2123       H  0.68828852  0.77918353  0.84953973     0.05100
H2124       H  0.74015435  0.78650710  0.84500202     0.08300
H2125       H  0.69224029  0.72640505  0.84889720     0.08300
H2126       H  0.66380945  0.75503913  0.69210628     0.08300
H2127       H  0.66882177  0.70624181  0.70351509     0.08300
H2128       H  0.71526984  0.76113348  0.68585974     0.05100
C2129       C  0.61747953  0.83150940  0.78146469    -0.20700
C2130       C  0.62420952  0.80639809  0.75689434    -0.07300
C2131       C  0.58765939  0.76011086  0.75170914     0.13600
C2132       C  0.54682248  0.74673452  0.76530033    -0.20800
C2133       C  0.54059582  0.77523319  0.78627810    -0.07300
C2134       C  0.57663229  0.81727572  0.79552944     0.13600
C2135       C  0.57237887  0.84812048  0.81957540    -0.24100
H2136       H  0.64410803  0.86261137  0.79063703     0.14900
H2137       H  0.01981337  0.71564421  0.75787108     0.14900
C2138       C  0.58980315  0.72299480  0.73273929    -0.24100
H2139       H  0.60376825  0.88117066  0.82285485     0.05100
H2140       H  0.55934154  0.82723796  0.84340110     0.08300
H2141       H  0.55066108  0.85984438  0.81117431     0.08300
H2142       H  0.61130956  0.71282879  0.74340560     0.08300
H2143       H  0.59930239  0.73600037  0.70718706     0.08300
H2144       H  0.55811413  0.68877310  0.73321964     0.05100
C2145       C  0.71316505  0.96378843  0.75688752    -0.20700
C2146       C  0.74378945  0.97299484  0.77861450    -0.07300
C2147       C  0.75511641  0.93754590  0.78394361     0.13600
C2148       C  0.73515508  0.89478747  0.76794049    -0.20800
C2149       C  0.70066807  0.88223840  0.74865196    -0.07300
C2150       C  0.69201121  0.92022156  0.74168244     0.13600
C2151       C  0.66034526  0.91682051  0.71872761    -0.24100
H2152       H  0.70469265  0.49158616  0.75253241     0.14900
H2153       H  0.74687583  0.87082178  0.77150218     0.14900
C2154       C  0.78692265  0.94242534  0.80755107    -0.24100
H2155       H  0.65666744  0.94866335  0.71820333     0.05100
H2156       H  0.62798120  0.88514549  0.72582866     0.08300
H2157       H  0.67254345  0.91669909  0.69400861     0.08300
H2158       H  0.77659972  0.94750104  0.83169603     0.08300
H2159       H  0.81957007  0.97305117  0.79922633     0.08300
H2160       H  0.78905491  0.90959446  0.81029522     0.05100
loop_ 
_geom_bond_atom_site_label_1 
_geom_bond_atom_site_label_2 
_geom_bond_distance 
_geom_bond_site_symmetry_2 
_ccdc_geom_bond_type 
Zr1           O2   2.441       .  S
Zr1           O3   2.445       .  S
Zr1           O4   2.515       .  S
Zr1           O7   2.477       .  S
Zr1           O9   2.383       .  S
Zr1          O10   2.392       .  S
Zr1          O11   2.406       .  S
Zr1          O12   2.414       .  S
O2           H58   0.991       .  S
O2           H66   0.990       .  S
O3           C23   1.286       .  A
O4           C25   1.301       .  A
O5          Zr15   2.415       .  S
O5           C24   1.280       .  A
O6          Zr14   2.386       .  S
O6           C25   1.273       .  A
O7           C24   1.294       .  A
O8          Zr16   2.396       .  S
O8           C23   1.278       .  A
O9          Zr14   2.387       .  S
O9          Zr16   2.384       .  S
O10         Zr15   2.372       .  S
O10         Zr16   2.376       .  S
O10          H45   0.965       .  S
O11         Zr14   2.397       .  S
O11         Zr31   2.392       .  S
O11          H48   0.965       .  S
O12         Zr15   2.391       .  S
O12         Zr31   2.395       .  S
Zr13         O38   2.440       .  S
Zr13         O32   2.431       .  S
Zr13         O40   2.470       .  S
Zr13         O28   2.487       .  S
Zr13         O19   2.403       .  S
Zr13         O20   2.404       .  S
Zr13         O21   2.381       .  S
Zr13         O22   2.399       .  S
Zr14         O33   2.437       .  S
Zr14         O26   2.432       .  S
Zr14         O27   2.394       .  S
Zr14         O20   2.393       .  S
Zr14         O21   2.380       .  S
Zr15         O17   2.434       .  S
Zr15         O39   2.438       .  S
Zr15         O41   2.388       .  S
Zr15         O19   2.393       .  S
Zr15         O22   2.392       .  S
Zr16         O42   2.436       .  S
Zr16         O43   2.436       .  S
Zr16         O18   2.437       .  S
Zr16         O19   2.383       .  S
Zr16         O20   2.381       .  S
O17          H54   0.990       .  S
O18          H49   0.990       .  S
O18          H63   0.990       .  S
O20          H46   0.964       .  S
O21         Zr31   2.375       .  S
O22         Zr31   2.378       .  S
O22          H47   0.968       .  S
C23         C462   1.471       .  S
C24         C497   1.491       .  S
C25        C1066   1.513   1_545  S
O26          H62   0.990       .  S
O27          C29   1.277       .  A
O28          C29   1.294       .  A
C29         C481   1.482       .  S
O30         Zr31   2.434       .  S
O30          H59   0.990       .  S
Zr31         O34   2.436       .  S
Zr31         O35   2.438       .  S
Zr31         O36   2.418       .  S
O32          C37   1.283       .  A
O33          H50   0.990       .  S
O33          H65   0.990       .  S
O34          H51   0.990       .  S
O35          H55   0.989       .  S
O35          H64   0.990       .  S
O36          C37   1.282       .  A
C37        C1593   1.478       .  S
O38          H57   0.990       .  S
O38          H61   0.990       .  S
O39          H53   0.990       .  S
O39          H60   0.990       .  S
O40          C44   1.291       .  A
O41          C44   1.277       .  A
O42          H52   0.990       .  S
O43          H56   0.990       .  S
C44         C446   1.475       .  S
C67         C433   1.577       .  S
C67         C494   1.601       .  S
C67         C510   1.586       .  S
C67         C529   1.603       .  S
C68         C414   1.590       .  S
C68         C465   1.573       .  S
C68        C2069   1.596   1_445  S
C68        C1558   1.574       .  S
Zr69         O70   2.438       .  S
Zr69         O71   2.432       .  S
Zr69       O1152   2.526       .  S
Zr69        O615   2.509   1_545  S
Zr69       O1157   2.394       .  S
Zr69        O618   2.395   1_545  S
Zr69       O1159   2.405       .  S
Zr69        O620   2.407   1_545  S
O70         H126   0.990       .  S
O70         H134   0.990       .  S
O71          C91   1.284       .  A
O72       Zr1149   2.530   1_455  S
O72          C93   1.302       .  A
O73         Zr83   2.381       .  S
O73          C92   1.272       .  A
O74         Zr82   2.357       .  S
O74          C93   1.270       .  A
O75        Zr609   2.510       .  S
O75          C92   1.299       .  A
O76         Zr84   2.388       .  S
O76          C91   1.276       .  A
O77         Zr82   2.386       .  S
O77       Zr1149   2.392   1_455  S
O77       Zr1164   2.377   1_455  S
O78         Zr83   2.371       .  S
O78        Zr609   2.397       .  S
O78        Zr624   2.380       .  S
O78         H113   0.967       .  S
O79         Zr82   2.394       .  S
O79       Zr1149   2.406   1_455  S
O79        Zr639   2.386   1_545  S
O79         H116   0.966       .  S
O80         Zr83   2.385       .  S
O80        Zr609   2.409       .  S
O80       Zr1179   2.387       .  S
Zr81        O106   2.440       .  S
Zr81        O100   2.434       .  S
Zr81        O108   2.510   1_455  S
Zr81        O636   2.500       .  S
Zr81         O90   2.393   1_455  S
Zr81       O1167   2.404   1_455  S
Zr81        O628   2.408       .  S
Zr81        O629   2.391       .  S
Zr82        O101   2.438       .  S
Zr82         O94   2.433       .  S
Zr82         O95   2.382       .  S
Zr82         O88   2.387       .  S
Zr82         O89   2.372   1_545  S
Zr83         O85   2.436       .  S
Zr83        O107   2.441       .  S
Zr83        O109   2.371       .  S
Zr83         O87   2.382       .  S
Zr83       O1170   2.378       .  S
Zr84        O650   2.437   1_545  S
Zr84       O1191   2.436       .  S
Zr84       O1166   2.435       .  S
Zr84       O1157   2.379       .  S
Zr84        O618   2.376   1_545  S
Zr84        O627   2.383   1_545  S
Zr84       O1168   2.383       .  S
O85         H122   0.990       .  S
O86       Zr1164   2.437   1_455  S
O86         H117   0.990       .  S
O86         H131   0.990       .  S
O87       Zr1161   2.397       .  S
O87        Zr624   2.380       .  S
O88        Zr621   2.404   1_545  S
O88       Zr1164   2.383   1_455  S
O88         H114   0.965       .  S
O89        Zr621   2.386       .  S
O89        Zr639   2.382       .  S
O90         Zr99   2.380   1_655  S
O90       Zr1163   2.381       .  S
O90        H1195   0.966       .  S
C91         C350   1.459       .  S
C92         C366   1.517       .  S
C93         C385   1.487       .  S
O94         H130   0.990       .  S
O95          C97   1.271       .  A
O96        Zr621   2.514   1_545  S
O96          C97   1.299       .  A
C97         C318   1.516       .  S
O98         Zr99   2.436   1_655  S
O98         H127   0.990       .  S
Zr99        O642   2.437       .  S
Zr99       O1183   2.441   1_455  S
Zr99        O104   2.399       .  S
Zr99        O619   2.391       .  S
Zr99       O1160   2.386   1_455  S
Zr99        O629   2.380       .  S
O100        C105   1.285       .  A
O101        H118   0.990       .  S
O101        H133   0.990       .  S
O102       Zr639   2.435       .  S
O102        H659   0.990   1_565  S
O103      Zr1179   2.443       .  S
O103        H132   0.989       .  S
O103       H1203   0.990       .  S
O104        C105   1.277       .  A
C105        C398   1.465       .  S
O106        H125   0.990       .  S
O106        H129   0.991       .  S
O107        H121   0.990       .  S
O107        H128   0.990       .  S
O108       C1192   1.299       .  A
O109        C112   1.273       .  A
O110       Zr624   2.436       .  S
O110        H660   0.990       .  S
O111      Zr1164   2.436   1_455  S
O111        H124   0.990       .  S
C112       O1188   1.297       .  A
C112        C334   1.482       .  S
H115       O1170   0.966       .  S
H119        O642   0.990       .  S
H120        O650   0.991   1_545  S
H123       O1183   0.990       .  S
C135        C302   1.582       .  S
C135        C321   1.575       .  S
C135        C337   1.604       .  S
C135        C353   1.581       .  S
C136        C369   1.579       .  S
C136        C382   1.608       .  S
C136        C401   1.585       .  S
C136        C430   1.612       .  S
Zr137       O138   2.441       .  S
Zr137       O139   2.438       .  S
Zr137       O140   2.450       .  S
Zr137       O143   2.434       .  S
Zr137       O145   2.387       .  S
Zr137       O146   2.384       .  S
Zr137       O147   2.406       .  S
Zr137       O148   2.407       .  S
O138        H194   0.990       .  S
O138        H202   0.990       .  S
O139        C159   1.284       .  A
O140        C161   1.285       .  A
O141       Zr151   2.428       .  S
O141        C160   1.285       .  A
O142       Zr150   2.402       .  S
O142        C161   1.279       .  A
O143        C160   1.283       .  A
O144       Zr152   2.409       .  S
O144        C159   1.280       .  A
O145       Zr150   2.397       .  S
O145       Zr152   2.382       .  S
O146       Zr151   2.375       .  S
O146       Zr152   2.376       .  S
O146        H181   0.965       .  S
O147       Zr150   2.400       .  S
O147       Zr167   2.386       .  S
O147        H184   0.965       .  S
O148       Zr151   2.381       .  S
O148       Zr167   2.392       .  S
Zr149       O174   2.440       .  S
Zr149       O168   2.443       .  S
Zr149       O176   2.453       .  S
Zr149       O164   2.460       .  S
Zr149       O155   2.402       .  S
Zr149       O156   2.405       .  S
Zr149       O157   2.375       .  S
Zr149       O158   2.391       .  S
Zr150       O169   2.439       .  S
Zr150       O162   2.434       .  S
Zr150       O163   2.423       .  S
Zr150       O156   2.388       .  S
Zr150       O157   2.380       .  S
Zr151       O153   2.435       .  S
Zr151       O175   2.440       .  S
Zr151       O177   2.399       .  S
Zr151       O155   2.396       .  S
Zr151       O158   2.389       .  S
Zr152       O178   2.435       .  S
Zr152       O179   2.436       .  S
Zr152       O154   2.437       .  S
Zr152       O155   2.386       .  S
Zr152       O156   2.397       .  S
O153        H190   0.990       .  S
O154        H185   0.990       .  S
O154        H199   0.990       .  S
O156        H182   0.967       .  S
O157       Zr167   2.378       .  S
O158       Zr167   2.377       .  S
O158        H183   0.964       .  S
C159        C286   1.494   1_455  S
C160        C238   1.499       .  S
C161        C222   1.472       .  S
O162        H198   0.990       .  S
O163        C165   1.285       .  A
O164        C165   1.289       .  A
C165        C254   1.506       .  S
O166       Zr167   2.436       .  S
O166        H195   0.990       .  S
Zr167       O170   2.435       .  S
Zr167       O171   2.441       .  S
Zr167       O172   2.410       .  S
O168        C173   1.285       .  A
O169        H186   0.990       .  S
O169        H201   0.990       .  S
O170        H187   0.990       .  S
O171        H191   0.990       .  S
O171        H200   0.990       .  S
O172        C173   1.281       .  A
C173        C206   1.500       .  S
O174        H193   0.990       .  S
O174        H197   0.990       .  S
O175        H189   0.990       .  S
O175        H196   0.990       .  S
O176        C180   1.288       .  A
O177        C180   1.278       .  A
O178        H188   0.990       .  S
O179        H192   0.990       .  S
C180        C813   1.470       .  S
C203        C241   1.574       .  S
C203        C417   1.592       .  S
C203       C1289   1.574   1_455  S
C203        C765   1.581       .  S
C204        C257   1.593       .  S
C204        C270   1.570       .  S
C204        C289   1.557       .  S
C204        C305   1.588       .  S
C205        C206   1.410       .  A
C205        C210   1.405       .  A
C205        H212   1.084       .  S
C206        C207   1.416       .  A
C207        C214   1.510       .  S
C207        C208   1.403       .  A
C208        C209   1.416       .  A
C208        H213   1.076       .  S
C209       C1283   1.577       .  S
C209        C210   1.430       .  A
C210        C211   1.512       .  S
C211        H215   1.111       .  S
C211        H216   1.102       .  S
C211        H217   1.110       .  S
C214        H218   1.110       .  S
C214        H219   1.110       .  S
C214        H220   1.111       .  S
C221        C222   1.397       .  A
C221        C226   1.398       .  A
C221        H228   1.086       .  S
C222        C223   1.401       .  A
C223        C230   1.507   1_455  S
C223        C224   1.404       .  A
C224        C225   1.429       .  A
C224       H1309   1.078   1_455  S
C225        C743   1.579   1_545  S
C225        C226   1.434       .  A
C226        C227   1.505       .  S
C227        H231   1.111       .  S
C227        H232   1.110       .  S
C227        H233   1.086       .  S
H229       C1304   1.078       .  S
C230        H234   1.110       .  S
C230        H235   1.111       .  S
C230       H1316   1.111       .  S
H236       C1310   1.111       .  S
C237        C238   1.401       .  A
C237        C242   1.398       .  A
C237        H244   1.084       .  S
C238        C239   1.417       .  A
C239        C246   1.506       .  S
C239        C240   1.411       .  A
C240        C241   1.415       .  A
C240       H1325   1.081   1_455  S
C241        C242   1.440       .  A
C242        C783   1.519       .  S
C243        C782   1.518   1_545  S
C243        H247   1.112       .  S
C243        H248   1.098       .  S
C243        H249   1.110       .  S
H245       C1320   1.080       .  S
C246        H250   1.108       .  S
C246        H251   1.110       .  S
C246       H1332   1.111   1_455  S
H252       C1326   1.111       .  S
C253        C254   1.404       .  A
C253        C258   1.408       .  A
C253        H260   1.085       .  S
C254        C255   1.414       .  A
C255        C262   1.507       .  S
C255        C256   1.410       .  A
C256        C257   1.422       .  A
C256        H261   1.079       .  S
C257        C258   1.442       .  A
C258        C259   1.516       .  S
C259        H263   1.112       .  S
C259        H264   1.108       .  S
C259        H265   1.100       .  S
C262        H266   1.110       .  S
C262        H267   1.109       .  S
C262        H268   1.111       .  S
C269        C270   1.419       .  A
C269        C274   1.400       .  A
C269        H276   1.084       .  S
C270        C271   1.452       .  A
C271        C278   1.513       .  S
C271        C272   1.401       .  A
C272        C273   1.388       .  A
C272        H277   1.086       .  S
C273        C720   1.470   1_545  S
C273        C274   1.408       .  A
C274        C815   1.508       .  S
C275        C814   1.508       .  S
C275        H279   1.111       .  S
C275        H280   1.110       .  S
C275        H281   1.108       .  S
C278        H282   1.090       .  S
C278        H283   1.111       .  S
C278        H284   1.112       .  S
C285        C286   1.409       .  A
C285       C1370   1.403       .  A
C285        H292   1.084   1_655  S
C286       C1367   1.416       .  A
C287        C294   1.509       .  S
C287        C288   1.402       .  A
C287       C1366   1.417       .  A
C288        C289   1.416       .  A
C288        H293   1.077       .  S
C289        C290   1.429       .  A
C290        C291   1.512       .  S
C290       C1365   1.400       .  A
C291        H295   1.111       .  S
C291        H296   1.110       .  S
C291        H297   1.099       .  S
C294        H300   1.111       .  S
C294       H1378   1.110       .  S
C294       H1379   1.109       .  S
H298       C1374   1.110       .  S
H299       C1374   1.110       .  S
C301        C302   1.411       .  A
C301        C306   1.403       .  A
C301        H308   1.076       .  S
C302        C303   1.430       .  A
C303        C310   1.512       .  S
C303        C304   1.409       .  A
C304        C305   1.417       .  A
C304        H309   1.076       .  S
C305        C306   1.435       .  A
C306        C307   1.510       .  S
C307        H311   1.111       .  S
C307        H312   1.099       .  S
C307        H313   1.103       .  S
C310        H314   1.106       .  S
C310        H315   1.107       .  S
C310        H316   1.111       .  S
C317        C318   1.405       .  A
C317        C322   1.419       .  A
C317        H324   1.083       .  S
C318        C319   1.432       .  A
C319        C326   1.513       .  S
C319        C320   1.399       .  A
C320        C321   1.405       .  A
C320        H325   1.077       .  S
C321        C322   1.441       .  A
C322        C323   1.513       .  S
C323        H327   1.111       .  S
C323        H328   1.107       .  S
C323        H329   1.108       .  S
C326        H330   1.109       .  S
C326        H331   1.107       .  S
C326        H332   1.111       .  S
C333        C334   1.392       .  A
C333        C338   1.401       .  A
C333        H340   1.087       .  S
C334        C335   1.406       .  A
C335        C342   1.505       .  S
C335        C336   1.415       .  A
C336        C337   1.430       .  A
C336        H341   1.077       .  S
C337        C338   1.445       .  A
C338        C339   1.507       .  S
C339        H343   1.111       .  S
C339        H344   1.086       .  S
C339        H345   1.111       .  S
C342        H347   1.111       .  S
C342        H348   1.111       .  S
C342       H1426   1.110       .  S
H346       C1422   1.111       .  S
C349        C350   1.393       .  A
C349        C354   1.408       .  A
C349        H356   1.085       .  S
C350        C351   1.397       .  A
C351        C358   1.510       .  S
C351        C352   1.388       .  A
C352        C353   1.426       .  A
C352        H357   1.083       .  S
C353        C354   1.449       .  A
C354        C355   1.519       .  S
C355        H359   1.102       .  S
C355        H360   1.102       .  S
C355        H361   1.111       .  S
C358        H362   1.107       .  S
C358        H363   1.111       .  S
C358        H364   1.111       .  S
C365        C366   1.404       .  A
C365        C370   1.417       .  A
C365        H372   1.084       .  S
C366        C367   1.433       .  A
C367        C374   1.513       .  S
C367        C368   1.400       .  A
C368        C369   1.406       .  A
C368        H373   1.077       .  S
C369        C370   1.442       .  A
C370        C371   1.512       .  S
C371        H375   1.110       .  S
C371        H376   1.110       .  S
C371        H377   1.102       .  S
C374        H378   1.108       .  S
C374        H379   1.106       .  S
C374        H380   1.111       .  S
C381        C382   1.425       .  A
C381        C386   1.403       .  A
C381        H388   1.080       .  S
C382        C383   1.436       .  A
C383        C390   1.494       .  S
C383        C384   1.420       .  A
C384        C385   1.400       .  A
C384        H389   1.084       .  S
C385        C386   1.408       .  A
C386        C387   1.509       .  S
C387        H391   1.111       .  S
C387        H392   1.111       .  S
C387        H393   1.107       .  S
C390        H394   1.099       .  S
C390        H395   1.108       .  S
C390        H396   1.111       .  S
C397        C398   1.392       .  A
C397        C402   1.407       .  A
C397        H404   1.085       .  S
C398        C399   1.399       .  A
C399        C406   1.509       .  S
C399        C400   1.392       .  A
C400        C401   1.423       .  A
C400        H405   1.083       .  S
C401        C402   1.452       .  A
C402        C403   1.516       .  S
C403        H407   1.112       .  S
C403        H408   1.106       .  S
C403        H409   1.102       .  S
C406        H410   1.110       .  S
C406        H411   1.108       .  S
C406        H412   1.111       .  S
C413        C418   1.411   1_556  A
C413        C954   1.417       .  A
C413        H420   1.083       .  S
C414        C953   1.419   1_545  A
C414       C1495   1.433       .  A
C415        C422   1.515       .  S
C415        C416   1.401   1_556  A
C415       C1494   1.434       .  A
C416       C2037   1.415   1_545  A
C416        H421   1.083       .  S
C417        C418   1.443       .  A
C417       C2036   1.418   1_455  A
C418        C419   1.514       .  S
C419        H423   1.111   1_554  S
C419        H424   1.107       .  S
C419        H425   1.103       .  S
C422        H426   1.110       .  S
C422        H427   1.098       .  S
C422        H428   1.112   1_556  S
C429        C430   1.429       .  A
C429        C434   1.411       .  A
C429        H436   1.080       .  S
C430        C431   1.439       .  A
C431        C438   1.512       .  S
C431        C432   1.412       .  A
C432        C433   1.415       .  A
C432        H437   1.078       .  S
C433        C434   1.428       .  A
C434        C435   1.511       .  S
C435        H439   1.109       .  S
C435        H440   1.110       .  S
C435        H441   1.095       .  S
C438        H442   1.108       .  S
C438        H443   1.106       .  S
C438        H444   1.108       .  S
C445        C446   1.394       .  A
C445        C450   1.401       .  A
C445        H452   1.085       .  S
C446        C447   1.403       .  A
C447       C1534   1.507       .  S
C447        C448   1.407       .  A
C448        C449   1.426       .  A
C448       H1533   1.076       .  S
C449       C1688   1.596       .  S
C449        C450   1.441       .  A
C450        C451   1.508       .  S
C451        H455   1.111       .  S
C451        H456   1.099       .  S
C451        H457   1.107       .  S
H453       C1528   1.076       .  S
C454       C1527   1.507       .  S
C454        H459   1.110       .  S
C454        H460   1.111       .  S
C454       H1538   1.110       .  S
H458       C1534   1.110       .  S
C461        C462   1.401       .  A
C461        C466   1.403       .  A
C461        H468   1.084       .  S
C462        C463   1.400       .  A
C463        C470   1.511       .  S
C463        C464   1.395       .  A
C464        C465   1.426       .  A
C464       H1009   1.072   1_545  S
C465        C466   1.434       .  A
C466        C467   1.514       .  S
C467        H471   1.111       .  S
C467        H472   1.107       .  S
C467        H473   1.101       .  S
H469       C1004   1.072       .  S
C470        H474   1.110   1_545  S
C470        H475   1.110       .  S
C470       H1016   1.111   1_545  S
H476       C1010   1.111       .  S
C477        C478   1.418       .  A
C477        C482   1.399       .  A
C477        H484   1.084       .  S
C478       C1148   1.575       .  S
C478        C479   1.454       .  A
C479        C486   1.518       .  S
C479        C480   1.415       .  A
C480        C481   1.393       .  A
C480        H485   1.085       .  S
C481        C482   1.408       .  A
C482        C483   1.508       .  S
C483        H487   1.111       .  S
C483        H488   1.107       .  S
C483        H489   1.111       .  S
C486        H490   1.101       .  S
C486        H492   1.111       .  S
C486       H1571   1.103       .  S
H491       C1566   1.103       .  S
C493        C494   1.422       .  A
C493        C498   1.410       .  A
C493        H500   1.082       .  S
C494        C495   1.450       .  A
C495        C502   1.506       .  S
C495        C496   1.410       .  A
C496        C497   1.391       .  A
C496        H501   1.086       .  S
C497        C498   1.411       .  A
C498        C499   1.507       .  S
C499        H503   1.111       .  S
C499        H504   1.106       .  S
C499        H505   1.111       .  S
C502        H506   1.084       .  S
C502        H507   1.111       .  S
C502        H508   1.109       .  S
C509        C510   1.428       .  A
C509        C514   1.401       .  A
C509        H516   1.078       .  S
C510        C511   1.434       .  A
C511        C518   1.504       .  S
C511        C512   1.403       .  A
C512        C513   1.396       .  A
C512       H1597   1.085       .  S
C513       C1117   1.474   1_455  S
C513        C514   1.402       .  A
C514        C515   1.509       .  S
C515        H519   1.111       .  S
C515        H520   1.109       .  S
C515        H521   1.111       .  S
H517       C1592   1.085       .  S
C518        H522   1.104       .  S
C518        H523   1.097       .  S
C518        H524   1.111       .  S
C525        C526   1.392       .  A
C525        C530   1.410       .  A
C525       H1072   1.084       .  S
C526        C565   1.510       .  S
C526        C527   1.429       .  A
C527        C534   1.511       .  S
C527        C528   1.407       .  A
C528        C529   1.412       .  A
C528        H533   1.077       .  S
C529        C530   1.449       .  A
C530        C531   1.503       .  S
C531        H535   1.111       .  S
C531        H536   1.103       .  S
C531        H537   1.104       .  S
H532       C1065   1.084       .  S
C534        H538   1.109       .  S
C534        H539   1.108       .  S
C534        H540   1.111       .  S
Zr541       O542   2.439       .  S
Zr541       O543   2.444       .  S
Zr541       O544   2.511       .  S
Zr541       O547   2.487       .  S
Zr541       O549   2.389       .  S
Zr541       O550   2.389       .  S
Zr541       O551   2.408       .  S
Zr541       O552   2.415       .  S
O542        H598   0.990       .  S
O542        H606   0.990       .  S
O543        C563   1.286       .  A
O544        C565   1.301       .  A
O545       Zr555   2.413       .  S
O545        C564   1.280       .  A
O546       Zr554   2.377       .  S
O546        C565   1.271       .  A
O547        C564   1.296       .  A
O548       Zr556   2.385       .  S
O548        C563   1.276       .  A
O549       Zr554   2.390       .  S
O549       Zr556   2.382       .  S
O550       Zr555   2.374       .  S
O550       Zr556   2.377       .  S
O550        H585   0.965       .  S
O551       Zr554   2.396       .  S
O551       Zr571   2.393       .  S
O551        H588   0.966       .  S
O552       Zr555   2.388       .  S
O552       Zr571   2.398       .  S
Zr553       O578   2.438       .  S
Zr553       O572   2.439       .  S
Zr553       O580   2.468       .  S
Zr553       O568   2.480       .  S
Zr553       O559   2.401       .  S
Zr553       O560   2.406       .  S
Zr553       O561   2.380       .  S
Zr553       O562   2.396       .  S
Zr554       O573   2.438       .  S
Zr554       O566   2.431       .  S
Zr554       O567   2.393       .  S
Zr554       O560   2.391       .  S
Zr554       O561   2.375       .  S
Zr555       O557   2.434       .  S
Zr555       O579   2.438       .  S
Zr555       O581   2.392       .  S
Zr555       O559   2.388       .  S
Zr555       O562   2.389       .  S
Zr556       O582   2.436       .  S
Zr556       O583   2.435       .  S
Zr556       O558   2.437       .  S
Zr556       O559   2.382       .  S
Zr556       O560   2.380       .  S
O557        H594   0.990       .  S
O558        H589   0.990       .  S
O558        H603   0.990       .  S
O560        H586   0.965       .  S
O561       Zr571   2.373       .  S
O562       Zr571   2.376       .  S
O562        H587   0.968       .  S
C563       C1002   1.465       .  S
C564       C1037   1.495       .  S
O566        H602   0.989       .  S
O567        C569   1.277       .  A
O568        C569   1.292       .  A
C569       C1021   1.480       .  S
O570       Zr571   2.435       .  S
O570        H599   0.990       .  S
Zr571       O574   2.436       .  S
Zr571       O575   2.440       .  S
Zr571       O576   2.419       .  S
O572        C577   1.285       .  A
O573        H590   0.990       .  S
O573        H605   0.990       .  S
O574        H591   0.990       .  S
O575        H595   0.990       .  S
O575        H604   0.989       .  S
O576        C577   1.282       .  A
C577       C2133   1.482       .  S
O578        H597   0.991       .  S
O578        H601   0.990       .  S
O579        H593   0.990       .  S
O579        H600   0.989       .  S
O580        C584   1.292       .  A
O581        C584   1.277       .  A
O582        H592   0.990       .  S
O583        H596   0.990       .  S
C584        C986   1.476       .  S
C607        C973   1.577       .  S
C607       C1034   1.604       .  S
C607       C1050   1.589       .  S
C607       C1069   1.607       .  S
C608        C954   1.591       .  S
C608       C1529   1.596   1_455  S
C608       C1005   1.570       .  S
C608       C2098   1.567       .  S
Zr609       O610   2.439       .  S
Zr609       O611   2.432       .  S
Zr609      O1692   2.523       .  S
Zr609      O1697   2.394       .  S
Zr609      O1699   2.407       .  S
O610        H666   0.990       .  S
O610        H674   0.990       .  S
O611        C631   1.284       .  A
O612      Zr1689   2.524   1_455  S
O612        C633   1.301       .  A
O613       Zr623   2.386       .  S
O613        C632   1.273       .  A
O614       Zr622   2.360       .  S
O614        C633   1.270       .  A
O615        C632   1.299       .  A
O616       Zr624   2.387       .  S
O616        C631   1.276       .  A
O617      Zr1689   2.393   1_455  S
O617       Zr622   2.382       .  S
O617      Zr1704   2.376   1_455  S
O618       Zr623   2.370       .  S
O618        H653   0.966       .  S
O619      Zr1689   2.410   1_455  S
O619       Zr622   2.394       .  S
O619        H656   0.966       .  S
O620       Zr623   2.387       .  S
O620      Zr1719   2.383       .  S
Zr621       O646   2.439       .  S
Zr621       O640   2.431       .  S
Zr621       O648   2.498   1_455  S
Zr621      O1707   2.408   1_455  S
Zr621       O630   2.400   1_455  S
Zr622       O641   2.438       .  S
Zr622       O634   2.436       .  S
Zr622       O635   2.376       .  S
Zr622       O628   2.385       .  S
Zr622       O629   2.375       .  S
Zr623       O625   2.436       .  S
Zr623       O647   2.440       .  S
Zr623       O649   2.374       .  S
Zr623       O627   2.382       .  S
Zr623      O1710   2.381       .  S
Zr624      O1731   2.435       .  S
Zr624      O1706   2.437       .  S
Zr624      O1697   2.381       .  S
Zr624      O1708   2.380       .  S
O625        H662   0.990       .  S
O626      Zr1704   2.438   1_455  S
O626        H657   0.990       .  S
O626        H671   0.990       .  S
O627      Zr1701   2.404       .  S
O628      Zr1704   2.380   1_455  S
O628        H654   0.966       .  S
O630      Zr1703   2.385       .  S
O630       Zr639   2.379   1_655  S
O630       H1735   0.967       .  S
C631        C890   1.456       .  S
C632        C906   1.516       .  S
C633        C925   1.487       .  S
O634        H670   0.990       .  S
O635        C637   1.271       .  A
O636        C637   1.296       .  A
C637        C858   1.507       .  S
O638       Zr639   2.437   1_655  S
O638        H667   0.990       .  S
Zr639      O1723   2.440   1_455  S
Zr639       O644   2.394       .  S
Zr639      O1700   2.385   1_455  S
O640        C645   1.284       .  A
O641        H658   0.990       .  S
O641        H673   0.990       .  S
O643      Zr1719   2.440       .  S
O643       H1743   0.990       .  S
O643        H672   0.989       .  S
O644        C645   1.277       .  A
C645        C938   1.463       .  S
O646        H665   0.990       .  S
O646        H669   0.991       .  S
O647        H661   0.990       .  S
O647        H668   0.990       .  S
O648       C1732   1.297       .  A
O649        C652   1.274       .  A
O651      Zr1704   2.436   1_455  S
O651        H664   0.990       .  S
C652       O1728   1.295       .  A
C652        C874   1.478       .  S
H655       O1710   0.966       .  S
H663       O1723   0.990       .  S
C675        C842   1.580       .  S
C675        C861   1.572       .  S
C675        C877   1.602       .  S
C675        C893   1.578       .  S
C676        C909   1.582       .  S
C676        C922   1.605       .  S
C676        C941   1.584       .  S
C676        C970   1.613       .  S
Zr677       O678   2.440       .  S
Zr677       O679   2.442       .  S
Zr677       O680   2.457       .  S
Zr677       O683   2.444       .  S
Zr677       O685   2.389       .  S
Zr677       O686   2.383       .  S
Zr677       O687   2.410       .  S
Zr677       O688   2.410       .  S
O678        H734   0.990       .  S
O678        H742   0.990       .  S
O679        C699   1.285       .  A
O680        C701   1.287       .  A
O681       Zr691   2.423       .  S
O681        C700   1.284       .  A
O682       Zr690   2.416       .  S
O682        C701   1.282       .  A
O683        C700   1.285       .  A
O684       Zr692   2.412       .  S
O684        C699   1.282       .  A
O685       Zr690   2.392       .  S
O685       Zr692   2.381       .  S
O686       Zr691   2.371       .  S
O686       Zr692   2.379       .  S
O686        H721   0.966       .  S
O687       Zr690   2.401       .  S
O687       Zr707   2.383       .  S
O687        H724   0.965       .  S
O688       Zr691   2.381       .  S
O688       Zr707   2.398       .  S
Zr689       O714   2.440       .  S
Zr689       O708   2.438       .  S
Zr689       O716   2.456       .  S
Zr689       O704   2.463       .  S
Zr689       O695   2.400       .  S
Zr689       O696   2.406       .  S
Zr689       O697   2.378       .  S
Zr689       O698   2.393       .  S
Zr690       O709   2.438       .  S
Zr690       O702   2.434       .  S
Zr690       O703   2.428       .  S
Zr690       O696   2.385       .  S
Zr690       O697   2.386       .  S
Zr691       O693   2.436       .  S
Zr691       O715   2.437       .  S
Zr691       O717   2.392       .  S
Zr691       O695   2.392       .  S
Zr691       O698   2.391       .  S
Zr692       O718   2.435       .  S
Zr692       O719   2.436       .  S
Zr692       O694   2.437       .  S
Zr692       O695   2.384       .  S
Zr692       O696   2.392       .  S
O693        H730   0.990   1_565  S
O694        H725   0.990       .  S
O694        H739   0.990       .  S
O696        H722   0.967       .  S
O697       Zr707   2.376       .  S
O698       Zr707   2.381       .  S
O698        H723   0.964       .  S
C699        C826   1.495   1_455  S
C700        C778   1.502       .  S
C701        C762   1.479       .  S
O702        H738   0.990       .  S
O703        C705   1.286       .  A
O704        C705   1.289       .  A
C705        C794   1.510       .  S
O706       Zr707   2.439       .  S
O706        H735   0.990       .  S
Zr707       O710   2.436       .  S
Zr707       O711   2.441       .  S
Zr707       O712   2.411       .  S
O708        C713   1.284       .  A
O709        H726   0.990       .  S
O709        H741   0.990       .  S
O710        H727   0.990       .  S
O711        H731   0.990       .  S
O711        H740   0.990       .  S
O712        C713   1.281       .  A
C713        C746   1.498       .  S
O714        H733   0.990       .  S
O714        H737   0.990       .  S
O715        H729   0.990       .  S
O715        H736   0.990       .  S
O716        C720   1.288       .  A
O717        C720   1.276       .  A
O718        H728   0.990       .  S
O719        H732   0.991       .  S
C743       C1829   1.574   1_455  S
C743        C781   1.578       .  S
C743        C957   1.588       .  S
C744        C797   1.597       .  S
C744        C810   1.575       .  S
C744        C829   1.557       .  S
C744        C845   1.585       .  S
C745        C746   1.408       .  A
C745        C750   1.403       .  A
C745        H752   1.084       .  S
C746        C747   1.417       .  A
C747        C754   1.510       .  S
C747        C748   1.404       .  A
C748        C749   1.418       .  A
C748        H753   1.078       .  S
C749       C1823   1.576       .  S
C749        C750   1.430       .  A
C750        C751   1.513       .  S
C751        H755   1.111       .  S
C751        H756   1.103       .  S
C751        H757   1.109       .  S
C754        H758   1.110       .  S
C754        H759   1.110       .  S
C754        H760   1.111       .  S
C761        C762   1.398       .  A
C761        C766   1.401       .  A
C761        H768   1.085       .  S
C762        C763   1.403       .  A
C763        C770   1.507   1_455  S
C763        C764   1.406       .  A
C764        C765   1.428       .  A
C764       H1849   1.078   1_455  S
C765        C766   1.433       .  A
C766        C767   1.505       .  S
C767        H771   1.111       .  S
C767        H772   1.110       .  S
C767        H773   1.087       .  S
H769       C1844   1.078       .  S
C770        H774   1.110       .  S
C770        H775   1.110       .  S
C770       H1856   1.111       .  S
H776       C1850   1.111       .  S
C777        C778   1.402       .  A
C777        C782   1.399       .  A
C777        H784   1.084       .  S
C778        C779   1.417       .  A
C779        C786   1.506       .  S
C779        C780   1.412       .  A
C780        C781   1.417       .  A
C780       H1865   1.080   1_455  S
C781        C782   1.439       .  A
C783        H787   1.112       .  S
C783        H788   1.097       .  S
C783        H789   1.110       .  S
H785       C1860   1.080       .  S
C786        H790   1.105       .  S
C786        H791   1.109       .  S
C786       H1872   1.111   1_455  S
H792       C1866   1.111       .  S
C793        C794   1.403       .  A
C793        C798   1.408       .  A
C793        H800   1.084       .  S
C794        C795   1.414       .  A
C795        C802   1.507       .  S
C795        C796   1.412       .  A
C796        C797   1.424       .  A
C796        H801   1.080       .  S
C797        C798   1.442       .  A
C798        C799   1.514       .  S
C799        H803   1.111       .  S
C799        H804   1.106       .  S
C799        H805   1.103       .  S
C802        H806   1.110       .  S
C802        H807   1.109       .  S
C802        H808   1.111       .  S
C809        C810   1.418       .  A
C809        C814   1.401       .  A
C809        H816   1.083       .  S
C810        C811   1.454       .  A
C811        C818   1.513       .  S
C811        C812   1.403       .  A
C812        C813   1.387       .  A
C812        H817   1.086       .  S
C813        C814   1.407       .  A
C815        H819   1.111       .  S
C815        H820   1.110   1_545  S
C815        H821   1.106   1_545  S
C818        H822   1.090       .  S
C818        H823   1.110       .  S
C818        H824   1.112       .  S
C825        C826   1.408       .  A
C825       C1910   1.403       .  A
C825        H832   1.084   1_655  S
C826       C1907   1.417       .  A
C827        C834   1.507       .  S
C827       C1906   1.417       .  A
C827        C828   1.402       .  A
C828        C829   1.415       .  A
C828        H833   1.079       .  S
C829        C830   1.429       .  A
C830        C831   1.512       .  S
C830       C1905   1.402       .  A
C831        H835   1.111       .  S
C831        H836   1.110       .  S
C831        H837   1.101       .  S
C834       H1918   1.110       .  S
C834       H1919   1.109       .  S
C834        H840   1.111       .  S
H838       C1914   1.110       .  S
H839       C1914   1.107       .  S
C841        C842   1.411       .  A
C841        C846   1.400       .  A
C841        H848   1.076       .  S
C842        C843   1.429       .  A
C843        C850   1.514       .  S
C843        C844   1.409       .  A
C844        C845   1.419       .  A
C844        H849   1.076       .  S
C845        C846   1.434       .  A
C846        C847   1.512       .  S
C847        H851   1.111       .  S
C847        H852   1.099       .  S
C847        H853   1.104       .  S
C850        H854   1.106       .  S
C850        H855   1.107       .  S
C850        H856   1.111       .  S
C857        C858   1.402       .  A
C857        C862   1.415       .  A
C857        H864   1.084       .  S
C858        C859   1.428       .  A
C859        C866   1.514       .  S
C859        C860   1.398       .  A
C860        C861   1.407       .  A
C860        H865   1.077       .  S
C861        C862   1.441       .  A
C862        C863   1.514       .  S
C863        H867   1.111       .  S
C863        H868   1.107       .  S
C863        H869   1.108       .  S
C866        H870   1.110       .  S
C866        H871   1.109       .  S
C866        H872   1.111       .  S
C873        C874   1.391       .  A
C873        C878   1.400       .  A
C873        H880   1.087       .  S
C874        C875   1.404       .  A
C875        C882   1.506       .  S
C875        C876   1.413       .  A
C876        C877   1.430       .  A
C876        H881   1.076       .  S
C877        C878   1.446       .  A
C878        C879   1.508       .  S
C879        H883   1.111       .  S
C879        H884   1.086       .  S
C879        H885   1.111       .  S
C882       H1966   1.110       .  S
C882        H887   1.110       .  S
C882        H888   1.111       .  S
H886       C1962   1.111       .  S
C889        C890   1.393       .  A
C889        C894   1.406       .  A
C889        H896   1.085       .  S
C890        C891   1.396       .  A
C891        C898   1.510       .  S
C891        C892   1.386       .  A
C892        C893   1.426       .  A
C892        H897   1.083       .  S
C893        C894   1.448       .  A
C894        C895   1.519       .  S
C895        H899   1.102       .  S
C895        H900   1.103       .  S
C895        H901   1.111       .  S
C898        H902   1.107       .  S
C898        H903   1.110       .  S
C898        H904   1.111       .  S
C905        C906   1.403       .  A
C905        C910   1.417       .  A
C905        H912   1.084       .  S
C906        C907   1.430       .  A
C907        C914   1.513       .  S
C907        C908   1.403       .  A
C908        C909   1.410       .  A
C908        H913   1.078       .  S
C909        C910   1.441       .  A
C910        C911   1.511       .  S
C911        H915   1.110       .  S
C911        H916   1.111       .  S
C911        H917   1.102       .  S
C914        H918   1.110       .  S
C914        H919   1.107       .  S
C914        H920   1.111       .  S
C921        C922   1.424       .  A
C921        C926   1.404       .  A
C921        H928   1.080       .  S
C922        C923   1.434       .  A
C923        C930   1.494       .  S
C923        C924   1.420       .  A
C924        C925   1.401       .  A
C924        H929   1.084       .  S
C925        C926   1.410       .  A
C926        C927   1.510       .  S
C927        H931   1.111       .  S
C927        H932   1.110       .  S
C927        H933   1.107       .  S
C930        H934   1.100       .  S
C930        H935   1.109       .  S
C930        H936   1.111       .  S
C937        C938   1.392       .  A
C937        C942   1.406       .  A
C937        H944   1.085       .  S
C938        C939   1.397       .  A
C939        C946   1.509       .  S
C939        C940   1.392       .  A
C940        C941   1.425       .  A
C940        H945   1.083       .  S
C941        C942   1.450       .  A
C942        C943   1.516       .  S
C943        H947   1.112       .  S
C943        H948   1.106       .  S
C943        H949   1.102       .  S
C946        H950   1.111       .  S
C946        H951   1.108       .  S
C946        H952   1.111       .  S
C953        C958   1.411   1_556  A
C953        H960   1.083       .  S
C954       C2035   1.433       .  A
C955        C962   1.515       .  S
C955       C2034   1.431       .  A
C955        C956   1.399   1_556  A
C956       C1497   1.417       .  A
C956        H961   1.083       .  S
C957       C1496   1.419   1_465  A
C957        C958   1.440       .  A
C958        C959   1.514       .  S
C959        H963   1.111   1_554  S
C959        H964   1.107       .  S
C959        H965   1.102       .  S
C962        H966   1.111       .  S
C962        H967   1.097       .  S
C962        H968   1.112   1_556  S
C969        C970   1.428       .  A
C969        C974   1.409       .  A
C969        H976   1.080       .  S
C970        C971   1.440       .  A
C971        C978   1.512       .  S
C971        C972   1.414       .  A
C972        C973   1.416       .  A
C972        H977   1.078       .  S
C973        C974   1.427       .  A
C974        C975   1.511       .  S
C975        H979   1.109       .  S
C975        H980   1.110       .  S
C975        H981   1.095       .  S
C978        H982   1.108       .  S
C978        H983   1.106       .  S
C978        H984   1.109       .  S
C985        C986   1.394       .  A
C985        C990   1.403       .  A
C985        H992   1.085       .  S
C986        C987   1.404       .  A
C987       C2074   1.507       .  S
C987        C988   1.407       .  A
C988        C989   1.424       .  A
C988       H2073   1.076       .  S
C989       C1148   1.596   1_565  S
C989        C990   1.442       .  A
C990        C991   1.509   1_565  S
C991        H995   1.111   1_545  S
C991        H996   1.099       .  S
C991        H997   1.107       .  S
H993       C2068   1.077       .  S
C994       C2067   1.507       .  S
C994       H2078   1.110       .  S
C994        H999   1.111       .  S
C994       H1000   1.111       .  S
H998       C2074   1.110       .  S
C1001      C1002   1.399       .  A
C1001      C1006   1.401       .  A
C1001      H1008   1.085       .  S
C1002      C1003   1.397       .  A
C1003      C1010   1.510       .  S
C1003      C1004   1.396       .  A
C1004      C1005   1.428       .  A
C1005      C1006   1.435       .  A
C1006      C1007   1.514       .  S
C1007      H1011   1.111       .  S
C1007      H1012   1.106       .  S
C1007      H1013   1.101       .  S
C1010      H1014   1.111       .  S
C1010      H1015   1.109       .  S
C1017      C1018   1.418       .  A
C1017      C1022   1.399       .  A
C1017      H1024   1.084       .  S
C1018      C1688   1.573       .  S
C1018      C1019   1.454       .  A
C1019      C1026   1.519       .  S
C1019      C1020   1.413       .  A
C1020      C1021   1.392       .  A
C1020      H1025   1.085       .  S
C1021      C1022   1.407       .  A
C1022      C1023   1.508       .  S
C1023      H1027   1.111       .  S
C1023      H1028   1.106       .  S
C1023      H1029   1.111       .  S
C1026      H1030   1.101       .  S
C1026      H2111   1.103       .  S
C1026      H1032   1.111       .  S
H1031      C2106   1.104       .  S
C1033      C1034   1.421       .  A
C1033      C1038   1.410       .  A
C1033      H1040   1.082       .  S
C1034      C1035   1.452       .  A
C1035      C1042   1.506       .  S
C1035      C1036   1.413       .  A
C1036      C1037   1.392       .  A
C1036      H1041   1.086       .  S
C1037      C1038   1.412       .  A
C1038      C1039   1.506       .  S
C1039      H1043   1.111       .  S
C1039      H1044   1.107       .  S
C1039      H1045   1.111       .  S
C1042      H1046   1.083       .  S
C1042      H1047   1.112       .  S
C1042      H1048   1.109       .  S
C1049      C1050   1.428       .  A
C1049      C1054   1.405       .  A
C1049      H1056   1.078       .  S
C1050      C1051   1.435       .  A
C1051      C1058   1.505       .  S
C1051      C1052   1.404       .  A
C1052      C1053   1.396       .  A
C1052      H2137   1.085       .  S
C1053      C1657   1.483   1_455  S
C1053      C1054   1.405       .  A
C1054      C1055   1.508       .  S
C1055      H1059   1.111       .  S
C1055      H1060   1.110       .  S
C1055      H1061   1.110       .  S
H1057      C2132   1.085       .  S
C1058      H1062   1.104       .  S
C1058      H1063   1.098       .  S
C1058      H1064   1.111       .  S
C1065      C1066   1.394       .  A
C1065      C1070   1.413       .  A
C1066      C1067   1.427       .  A
C1067      C1074   1.511       .  S
C1067      C1068   1.409       .  A
C1068      C1069   1.414       .  A
C1068      H1073   1.076       .  S
C1069      C1070   1.449       .  A
C1070      C1071   1.502       .  S
C1071      H1075   1.111       .  S
C1071      H1076   1.104       .  S
C1071      H1077   1.105       .  S
C1074      H1078   1.109       .  S
C1074      H1079   1.108       .  S
C1074      H1080   1.111       .  S
Zr1081     O1082   2.439       .  S
Zr1081     O1083   2.441       .  S
Zr1081     O1084   2.506       .  S
Zr1081     O1087   2.492       .  S
Zr1081     O1089   2.390       .  S
Zr1081     O1090   2.385       .  S
Zr1081     O1091   2.409       .  S
Zr1081     O1092   2.414       .  S
O1082      H1138   0.990       .  S
O1082      H1146   0.990       .  S
O1083      C1103   1.286       .  A
O1084      C1105   1.300       .  A
O1085     Zr1095   2.414       .  S
O1085      C1104   1.280       .  A
O1086     Zr1094   2.383       .  S
O1086      C1105   1.272       .  A
O1087      C1104   1.297       .  A
O1088     Zr1096   2.390       .  S
O1088      C1103   1.277       .  A
O1089     Zr1094   2.392       .  S
O1089     Zr1096   2.383       .  S
O1090     Zr1095   2.372       .  S
O1090     Zr1096   2.378       .  S
O1090      H1125   0.965       .  S
O1091     Zr1094   2.398       .  S
O1091     Zr1111   2.391       .  S
O1091      H1128   0.965       .  S
O1092     Zr1095   2.390       .  S
O1092     Zr1111   2.400       .  S
Zr1093     O1118   2.439       .  S
Zr1093     O1112   2.425       .  S
Zr1093     O1120   2.470       .  S
Zr1093     O1108   2.487       .  S
Zr1093     O1099   2.400       .  S
Zr1093     O1100   2.404       .  S
Zr1093     O1101   2.382       .  S
Zr1093     O1102   2.399       .  S
Zr1094     O1113   2.437       .  S
Zr1094     O1106   2.430       .  S
Zr1094     O1107   2.398       .  S
Zr1094     O1100   2.394       .  S
Zr1094     O1101   2.375       .  S
Zr1095     O1097   2.435       .  S
Zr1095     O1119   2.438       .  S
Zr1095     O1121   2.382       .  S
Zr1095     O1099   2.394       .  S
Zr1095     O1102   2.392       .  S
Zr1096     O1122   2.436       .  S
Zr1096     O1123   2.436       .  S
Zr1096     O1098   2.438       .  S
Zr1096     O1099   2.382       .  S
Zr1096     O1100   2.376       .  S
O1097      H1134   0.990       .  S
O1098      H1129   0.990       .  S
O1098      H1143   0.990       .  S
O1100      H1126   0.964       .  S
O1101     Zr1111   2.374       .  S
O1102     Zr1111   2.378       .  S
O1102      H1127   0.967       .  S
C1103      C1542   1.467       .  S
C1104      C1577   1.497       .  S
C1105      C2146   1.508   1_545  S
O1106      H1142   0.989       .  S
O1107      C1109   1.278       .  A
O1108      C1109   1.294       .  A
C1109      C1561   1.483       .  S
O1110     Zr1111   2.435       .  S
O1110      H1139   0.990       .  S
Zr1111     O1114   2.437       .  S
Zr1111     O1115   2.438       .  S
Zr1111     O1116   2.414       .  S
O1112      C1117   1.282       .  A
O1113      H1130   0.990       .  S
O1113      H1145   0.990       .  S
O1114      H1131   0.990       .  S
O1115      H1135   0.990       .  S
O1115      H1144   0.990       .  S
O1116      C1117   1.281       .  A
O1118      H1137   0.990       .  S
O1118      H1141   0.990       .  S
O1119      H1133   0.990       .  S
O1119      H1140   0.989       .  S
O1120      C1124   1.292       .  A
O1121      C1124   1.276       .  A
O1122      H1132   0.990       .  S
O1123      H1136   0.990       .  S
C1124      C1526   1.474       .  S
C1147      C1513   1.579       .  S
C1147      C1574   1.605       .  S
C1147      C1590   1.587       .  S
C1147      C1609   1.606       .  S
C1148      C1494   1.591       .  S
C1148      C1545   1.574       .  S
Zr1149     O1150   2.438       .  S
Zr1149     O1151   2.439       .  S
Zr1149     O1695   2.512   1_545  S
Zr1149     O1698   2.398   1_545  S
Zr1149     O1700   2.408   1_545  S
O1150      H1206   0.990       .  S
O1150      H1214   0.990       .  S
O1151      C1171   1.285       .  A
O1152      C1173   1.301       .  A
O1153     Zr1163   2.391       .  S
O1153      C1172   1.274       .  A
O1154     Zr1162   2.357       .  S
O1154      C1173   1.269       .  A
O1155     Zr1689   2.510       .  S
O1155      C1172   1.300       .  A
O1156     Zr1164   2.392       .  S
O1156      C1171   1.277       .  A
O1157     Zr1162   2.383       .  S
O1158     Zr1689   2.394       .  S
O1158     Zr1163   2.371       .  S
O1158     Zr1704   2.380       .  S
O1158      H1193   0.966       .  S
O1159     Zr1162   2.395       .  S
O1159     Zr1719   2.383   1_545  S
O1159      H1196   0.966       .  S
O1160     Zr1689   2.408       .  S
O1160     Zr1163   2.383       .  S
Zr1161     O1186   2.439       .  S
Zr1161     O1180   2.432       .  S
Zr1161     O1188   2.502       .  S
Zr1161     O1716   2.499       .  S
Zr1161     O1708   2.406       .  S
Zr1161     O1709   2.391       .  S
Zr1161     O1170   2.390       .  S
Zr1162     O1181   2.439       .  S
Zr1162     O1174   2.437       .  S
Zr1162     O1175   2.374       .  S
Zr1162     O1168   2.382       .  S
Zr1162     O1169   2.369   1_545  S
Zr1163     O1165   2.436       .  S
Zr1163     O1187   2.439       .  S
Zr1163     O1189   2.372       .  S
Zr1163     O1167   2.388       .  S
Zr1164     O1730   2.437   1_545  S
Zr1164     O1698   2.378   1_545  S
Zr1164     O1707   2.386   1_545  S
O1165      H1202   0.990       .  S
O1166      H1197   0.990       .  S
O1166      H1211   0.990       .  S
O1167     Zr1704   2.387       .  S
O1168     Zr1701   2.402   1_545  S
O1168      H1194   0.966       .  S
O1169     Zr1701   2.384       .  S
O1169     Zr1719   2.379       .  S
O1170     Zr1179   2.382       .  S
C1171      C1430   1.461       .  S
C1172      C1446   1.518       .  S
C1173      C1465   1.485       .  S
O1174      H1210   0.990       .  S
O1175      C1177   1.270       .  A
O1176     Zr1701   2.503   1_545  S
O1176      C1177   1.297       .  A
C1177      C1398   1.510       .  S
O1178     Zr1179   2.441       .  S
O1178      H1207   0.991       .  S
Zr1179     O1722   2.438       .  S
Zr1179     O1184   2.398       .  S
Zr1179     O1699   2.392       .  S
Zr1179     O1709   2.380       .  S
O1180      C1185   1.285       .  A
O1181      H1198   0.990       .  S
O1181      H1213   0.990       .  S
O1182     Zr1719   2.436   1_545  S
O1182      H1739   0.990       .  S
O1183      H1212   0.989       .  S
O1184      C1185   1.277       .  A
C1185      C1478   1.462       .  S
O1186      H1205   0.990       .  S
O1186      H1209   0.990       .  S
O1187      H1201   0.990       .  S
O1187      H1208   0.990       .  S
O1189      C1192   1.273       .  A
O1190     Zr1704   2.435       .  S
O1190      H1740   0.990       .  S
O1191      H1204   0.990       .  S
C1192      C1414   1.487       .  S
H1199      O1722   0.990       .  S
H1200      O1730   0.990       .  S
C1215      C1382   1.582       .  S
C1215      C1401   1.571       .  S
C1215      C1417   1.607       .  S
C1215      C1433   1.581       .  S
C1216      C1449   1.580       .  S
C1216      C1462   1.602       .  S
C1216      C1481   1.582       .  S
C1216      C1510   1.616       .  S
Zr1217     O1218   2.439       .  S
Zr1217     O1219   2.428       .  S
Zr1217     O1220   2.458       .  S
Zr1217     O1223   2.440       .  S
Zr1217     O1225   2.388       .  S
Zr1217     O1226   2.383       .  S
Zr1217     O1227   2.404       .  S
Zr1217     O1228   2.405       .  S
O1218      H1274   0.990       .  S
O1218      H1282   0.990       .  S
O1219      C1239   1.282       .  A
O1220      C1241   1.287       .  A
O1221     Zr1231   2.423       .  S
O1221      C1240   1.284       .  A
O1222     Zr1230   2.411       .  S
O1222      C1241   1.281       .  A
O1223      C1240   1.284       .  A
O1224     Zr1232   2.410       .  S
O1224      C1239   1.281       .  A
O1225     Zr1230   2.392       .  S
O1225     Zr1232   2.383       .  S
O1226     Zr1231   2.375       .  S
O1226     Zr1232   2.377       .  S
O1226      H1261   0.965       .  S
O1227     Zr1230   2.398       .  S
O1227     Zr1247   2.386       .  S
O1227      H1264   0.965       .  S
O1228     Zr1231   2.381       .  S
O1228     Zr1247   2.390       .  S
Zr1229     O1254   2.439       .  S
Zr1229     O1248   2.439       .  S
Zr1229     O1256   2.456       .  S
Zr1229     O1244   2.458       .  S
Zr1229     O1235   2.399       .  S
Zr1229     O1236   2.401       .  S
Zr1229     O1237   2.376       .  S
Zr1229     O1238   2.394       .  S
Zr1230     O1249   2.437       .  S
Zr1230     O1242   2.435       .  S
Zr1230     O1243   2.426       .  S
Zr1230     O1236   2.384       .  S
Zr1230     O1237   2.381       .  S
Zr1231     O1233   2.436       .  S
Zr1231     O1255   2.440       .  S
Zr1231     O1257   2.391       .  S
Zr1231     O1235   2.394       .  S
Zr1231     O1238   2.391       .  S
Zr1232     O1258   2.439       .  S
Zr1232     O1259   2.436       .  S
Zr1232     O1234   2.436       .  S
Zr1232     O1235   2.381       .  S
Zr1232     O1236   2.389       .  S
O1233      H1270   0.990       .  S
O1234      H1265   0.990       .  S
O1234      H1279   0.990       .  S
O1236      H1262   0.967       .  S
O1237     Zr1247   2.376       .  S
O1238     Zr1247   2.377       .  S
O1238      H1263   0.965       .  S
C1239      C1366   1.490       .  S
C1240      C1318   1.498       .  S
C1241      C1302   1.477       .  S
O1242      H1278   0.990       .  S
O1243      C1245   1.286       .  A
O1244      C1245   1.289       .  A
C1245      C1334   1.506       .  S
O1246     Zr1247   2.436       .  S
O1246      H1275   0.990       .  S
Zr1247     O1250   2.435       .  S
Zr1247     O1251   2.440       .  S
Zr1247     O1252   2.407       .  S
O1248      C1253   1.285       .  A
O1249      H1266   0.990       .  S
O1249      H1281   0.990       .  S
O1250      H1267   0.990       .  S
O1251      H1271   0.990       .  S
O1251      H1280   0.989       .  S
O1252      C1253   1.281       .  A
C1253      C1286   1.497       .  S
O1254      H1273   0.990       .  S
O1254      H1277   0.990       .  S
O1255      H1269   0.990       .  S
O1255      H1276   0.990       .  S
O1256      C1260   1.289       .  A
O1257      C1260   1.276       .  A
O1258      H1268   0.990       .  S
O1259      H1272   0.990       .  S
C1260      C1893   1.468       .  S
C1283      C1845   1.579       .  S
C1283      C1321   1.574       .  S
C1283      C1497   1.586       .  S
C1284      C1337   1.595       .  S
C1284      C1350   1.574       .  S
C1284      C1369   1.559       .  S
C1284      C1385   1.589       .  S
C1285      C1286   1.410       .  A
C1285      C1290   1.402       .  A
C1285      H1292   1.084       .  S
C1286      C1287   1.415       .  A
C1287      C1294   1.509       .  S
C1287      C1288   1.403       .  A
C1288      C1289   1.418       .  A
C1288      H1293   1.076       .  S
C1289      C1290   1.427       .  A
C1290      C1291   1.511       .  S
C1291      H1295   1.111       .  S
C1291      H1296   1.102       .  S
C1291      H1297   1.110       .  S
C1294      H1298   1.110       .  S
C1294      H1299   1.110       .  S
C1294      H1300   1.111       .  S
C1301      C1302   1.398       .  A
C1301      C1306   1.401       .  A
C1301      H1308   1.086       .  S
C1302      C1303   1.402       .  A
C1303      C1310   1.507       .  S
C1303      C1304   1.405       .  A
C1304      C1305   1.429       .  A
C1305      C1823   1.583   1_545  S
C1305      C1306   1.434       .  A
C1306      C1307   1.505       .  S
C1307      H1311   1.111       .  S
C1307      H1312   1.110       .  S
C1307      H1313   1.088       .  S
C1310      H1314   1.110       .  S
C1310      H1315   1.110       .  S
C1317      C1318   1.401       .  A
C1317      C1322   1.400       .  A
C1317      H1324   1.085       .  S
C1318      C1319   1.416       .  A
C1319      C1326   1.506       .  S
C1319      C1320   1.410       .  A
C1320      C1321   1.414       .  A
C1321      C1322   1.441       .  A
C1322      C1863   1.519       .  S
C1323      C1862   1.518   1_545  S
C1323      H1327   1.112       .  S
C1323      H1328   1.098       .  S
C1323      H1329   1.109       .  S
C1326      H1330   1.108       .  S
C1326      H1331   1.110       .  S
C1333      C1334   1.403       .  A
C1333      C1338   1.408       .  A
C1333      H1340   1.084       .  S
C1334      C1335   1.414       .  A
C1335      C1342   1.507       .  S
C1335      C1336   1.410       .  A
C1336      C1337   1.423       .  A
C1336      H1341   1.079       .  S
C1337      C1338   1.443       .  A
C1338      C1339   1.515       .  S
C1339      H1343   1.112       .  S
C1339      H1344   1.107       .  S
C1339      H1345   1.101       .  S
C1342      H1346   1.110       .  S
C1342      H1347   1.109       .  S
C1342      H1348   1.111       .  S
C1349      C1350   1.417       .  A
C1349      C1354   1.401       .  A
C1349      H1356   1.083       .  S
C1350      C1351   1.453       .  A
C1351      C1358   1.513       .  S
C1351      C1352   1.403       .  A
C1352      C1353   1.388       .  A
C1352      H1357   1.086       .  S
C1353      C1800   1.472   1_545  S
C1353      C1354   1.408       .  A
C1354      C1895   1.508       .  S
C1355      C1894   1.508       .  S
C1355      H1359   1.111       .  S
C1355      H1360   1.110       .  S
C1355      H1361   1.107       .  S
C1358      H1362   1.090       .  S
C1358      H1363   1.110       .  S
C1358      H1364   1.112       .  S
C1365      C1366   1.407       .  A
C1365      H1372   1.084       .  S
C1367      C1374   1.508       .  S
C1367      C1368   1.402       .  A
C1368      C1369   1.416       .  A
C1368      H1373   1.078       .  S
C1369      C1370   1.429       .  A
C1370      C1371   1.512       .  S
C1371      H1375   1.111       .  S
C1371      H1376   1.110       .  S
C1371      H1377   1.099       .  S
C1374      H1380   1.111       .  S
C1381      C1382   1.409       .  A
C1381      C1386   1.402       .  A
C1381      H1388   1.076       .  S
C1382      C1383   1.430       .  A
C1383      C1390   1.513       .  S
C1383      C1384   1.411       .  A
C1384      C1385   1.419       .  A
C1384      H1389   1.076       .  S
C1385      C1386   1.435       .  A
C1386      C1387   1.510       .  S
C1387      H1391   1.111       .  S
C1387      H1392   1.099       .  S
C1387      H1393   1.103       .  S
C1390      H1394   1.107       .  S
C1390      H1395   1.107       .  S
C1390      H1396   1.111       .  S
C1397      C1398   1.403       .  A
C1397      C1402   1.417       .  A
C1397      H1404   1.084       .  S
C1398      C1399   1.431       .  A
C1399      C1406   1.513       .  S
C1399      C1400   1.398       .  A
C1400      C1401   1.404       .  A
C1400      H1405   1.077       .  S
C1401      C1402   1.442       .  A
C1402      C1403   1.513       .  S
C1403      H1407   1.111       .  S
C1403      H1408   1.107       .  S
C1403      H1409   1.108       .  S
C1406      H1410   1.109       .  S
C1406      H1411   1.109       .  S
C1406      H1412   1.111       .  S
C1413      C1414   1.394       .  A
C1413      C1418   1.402       .  A
C1413      H1420   1.087       .  S
C1414      C1415   1.406       .  A
C1415      C1422   1.505       .  S
C1415      C1416   1.418       .  A
C1416      C1417   1.432       .  A
C1416      H1421   1.077       .  S
C1417      C1418   1.445       .  A
C1418      C1419   1.507       .  S
C1419      H1423   1.111       .  S
C1419      H1424   1.086       .  S
C1419      H1425   1.111       .  S
C1422      H1427   1.110       .  S
C1422      H1428   1.111       .  S
C1429      C1430   1.393       .  A
C1429      C1434   1.409       .  A
C1429      H1436   1.085       .  S
C1430      C1431   1.397       .  A
C1431      C1438   1.509       .  S
C1431      C1432   1.387       .  A
C1432      C1433   1.425       .  A
C1432      H1437   1.083       .  S
C1433      C1434   1.451       .  A
C1434      C1435   1.520       .  S
C1435      H1439   1.102       .  S
C1435      H1440   1.102       .  S
C1435      H1441   1.111       .  S
C1438      H1442   1.108       .  S
C1438      H1443   1.111       .  S
C1438      H1444   1.111       .  S
C1445      C1446   1.406       .  A
C1445      C1450   1.418       .  A
C1445      H1452   1.084       .  S
C1446      C1447   1.431       .  A
C1447      C1454   1.513       .  S
C1447      C1448   1.403       .  A
C1448      C1449   1.410       .  A
C1448      H1453   1.078       .  S
C1449      C1450   1.439       .  A
C1450      C1451   1.511       .  S
C1451      H1455   1.110       .  S
C1451      H1456   1.110       .  S
C1451      H1457   1.102       .  S
C1454      H1458   1.109       .  S
C1454      H1459   1.107       .  S
C1454      H1460   1.111       .  S
C1461      C1462   1.422       .  A
C1461      C1466   1.400       .  A
C1461      H1468   1.077       .  S
C1462      C1463   1.432       .  A
C1463      C1470   1.493       .  S
C1463      C1464   1.421       .  A
C1464      C1465   1.403       .  A
C1464      H1469   1.084       .  S
C1465      C1466   1.410       .  A
C1466      C1467   1.511       .  S
C1467      H1471   1.111       .  S
C1467      H1472   1.110       .  S
C1467      H1473   1.107       .  S
C1470      H1474   1.100       .  S
C1470      H1475   1.109       .  S
C1470      H1476   1.111       .  S
C1477      C1478   1.391       .  A
C1477      C1482   1.405       .  A
C1477      H1484   1.086       .  S
C1478      C1479   1.398       .  A
C1479      C1486   1.508       .  S
C1479      C1480   1.392       .  A
C1480      C1481   1.424       .  A
C1480      H1485   1.083       .  S
C1481      C1482   1.449       .  A
C1482      C1483   1.518       .  S
C1483      H1487   1.112       .  S
C1483      H1488   1.103       .  S
C1483      H1489   1.104       .  S
C1486      H1490   1.110       .  S
C1486      H1491   1.107       .  S
C1486      H1492   1.111       .  S
C1493      C2034   1.419       .  A
C1493      C1498   1.411   1_556  A
C1493      H1500   1.083       .  S
C1494      C2033   1.419   1_545  A
C1495      C1502   1.515   1_455  S
C1495      C1496   1.403   1_456  A
C1496      H1501   1.083       .  S
C1497      C1498   1.442       .  A
C1498      C1499   1.516       .  S
C1499      H1503   1.111   1_554  S
C1499      H1504   1.107       .  S
C1499      H1505   1.102       .  S
C1502      H1506   1.110       .  S
C1502      H1507   1.097   1_655  S
C1502      H1508   1.112   1_656  S
C1509      C1510   1.429       .  A
C1509      C1514   1.411       .  A
C1509      H1516   1.079       .  S
C1510      C1511   1.440       .  A
C1511      C1518   1.512       .  S
C1511      C1512   1.413       .  A
C1512      C1513   1.416       .  A
C1512      H1517   1.078       .  S
C1513      C1514   1.427       .  A
C1514      C1515   1.511       .  S
C1515      H1519   1.109       .  S
C1515      H1520   1.110       .  S
C1515      H1521   1.095       .  S
C1518      H1522   1.109       .  S
C1518      H1523   1.106       .  S
C1518      H1524   1.109       .  S
C1525      C1526   1.394       .  A
C1525      C1530   1.402       .  A
C1525      H1532   1.085       .  S
C1526      C1527   1.403       .  A
C1527      C1528   1.406       .  A
C1528      C1529   1.423       .  A
C1529      C1530   1.443       .  A
C1530      C1531   1.508       .  S
C1531      H1535   1.111       .  S
C1531      H1536   1.098   1_655  S
C1531      H1537   1.107       .  S
C1534      H1539   1.110       .  S
C1534      H1540   1.111       .  S
C1541      C1542   1.400       .  A
C1541      C1546   1.402       .  A
C1541      H1548   1.085       .  S
C1542      C1543   1.398       .  A
C1543      C1550   1.512   1_545  S
C1543      C1544   1.396       .  A
C1544      C1545   1.428       .  A
C1544      H2089   1.072   1_545  S
C1545      C1546   1.434       .  A
C1546      C1547   1.514       .  S
C1547      H1551   1.111       .  S
C1547      H1552   1.107       .  S
C1547      H1553   1.101       .  S
H1549      C2084   1.072       .  S
C1550      H1554   1.110       .  S
C1550      H1555   1.110   1_565  S
C1550      H2096   1.111       .  S
H1556      C2090   1.111       .  S
C1557      C1558   1.419   1_655  A
C1557      C1562   1.400       .  A
C1557      H1564   1.084       .  S
C1558      C1559   1.454       .  A
C1559      C1566   1.519       .  S
C1559      C1560   1.415       .  A
C1560      C1561   1.393   1_455  A
C1560      H1565   1.085       .  S
C1561      C1562   1.408       .  A
C1562      C1563   1.508       .  S
C1563      H1567   1.111       .  S
C1563      H1568   1.105       .  S
C1563      H1569   1.110       .  S
C1566      H1570   1.100       .  S
C1566      H1572   1.111       .  S
C1573      C1574   1.421       .  A
C1573      C1578   1.411       .  A
C1573      H1580   1.082       .  S
C1574      C1575   1.451       .  A
C1575      C1582   1.505       .  S
C1575      C1576   1.412       .  A
C1576      C1577   1.392       .  A
C1576      H1581   1.086       .  S
C1577      C1578   1.413       .  A
C1578      C1579   1.506       .  S
C1579      H1583   1.111       .  S
C1579      H1584   1.107       .  S
C1579      H1585   1.111       .  S
C1582      H1586   1.083       .  S
C1582      H1587   1.111       .  S
C1582      H1588   1.109       .  S
C1589      C1590   1.428       .  A
C1589      C1594   1.402       .  A
C1589      H1596   1.078       .  S
C1590      C1591   1.434       .  A
C1591      C1598   1.505       .  S
C1591      C1592   1.404       .  A
C1592      C1593   1.397       .  A
C1593      C1594   1.403       .  A
C1594      C1595   1.509       .  S
C1595      H1599   1.111       .  S
C1595      H1600   1.110       .  S
C1595      H1601   1.110       .  S
C1598      H1602   1.105       .  S
C1598      H1603   1.098       .  S
C1598      H1604   1.111       .  S
C1605      C1606   1.394       .  A
C1605      C1610   1.413       .  A
C1605      H2152   1.084       .  S
C1606      C1645   1.515       .  S
C1606      C1607   1.429       .  A
C1607      C1614   1.511       .  S
C1607      C1608   1.410       .  A
C1608      C1609   1.414       .  A
C1608      H1613   1.077       .  S
C1609      C1610   1.448       .  A
C1610      C1611   1.503       .  S
C1611      H1615   1.111       .  S
C1611      H1616   1.104       .  S
C1611      H1617   1.105       .  S
H1612      C2145   1.084       .  S
C1614      H1618   1.109       .  S
C1614      H1619   1.108       .  S
C1614      H1620   1.111       .  S
Zr1621     O1622   2.438       .  S
Zr1621     O1623   2.439       .  S
Zr1621     O1624   2.515       .  S
Zr1621     O1627   2.479       .  S
Zr1621     O1629   2.386       .  S
Zr1621     O1630   2.392       .  S
Zr1621     O1631   2.407       .  S
Zr1621     O1632   2.413       .  S
O1622      H1678   0.990       .  S
O1622      H1686   0.990       .  S
O1623      C1643   1.285       .  A
O1624      C1645   1.301       .  A
O1625     Zr1635   2.420       .  S
O1625      C1644   1.282       .  A
O1626     Zr1634   2.387       .  S
O1626      C1645   1.273       .  A
O1627      C1644   1.295       .  A
O1628     Zr1636   2.392       .  S
O1628      C1643   1.277       .  A
O1629     Zr1634   2.388       .  S
O1629     Zr1636   2.384       .  S
O1630     Zr1635   2.372       .  S
O1630     Zr1636   2.374       .  S
O1630      H1665   0.965       .  S
O1631     Zr1634   2.396       .  S
O1631     Zr1651   2.396       .  S
O1631      H1668   0.966       .  S
O1632     Zr1635   2.386       .  S
O1632     Zr1651   2.394       .  S
Zr1633     O1658   2.439       .  S
Zr1633     O1652   2.440       .  S
Zr1633     O1660   2.464       .  S
Zr1633     O1648   2.475       .  S
Zr1633     O1639   2.401       .  S
Zr1633     O1640   2.406       .  S
Zr1633     O1641   2.380       .  S
Zr1633     O1642   2.396       .  S
Zr1634     O1653   2.437       .  S
Zr1634     O1646   2.434       .  S
Zr1634     O1647   2.393       .  S
Zr1634     O1640   2.394       .  S
Zr1634     O1641   2.379       .  S
Zr1635     O1637   2.435       .  S
Zr1635     O1659   2.437       .  S
Zr1635     O1661   2.389       .  S
Zr1635     O1639   2.391       .  S
Zr1635     O1642   2.391       .  S
Zr1636     O1662   2.438       .  S
Zr1636     O1663   2.436       .  S
Zr1636     O1638   2.437       .  S
Zr1636     O1639   2.382       .  S
Zr1636     O1640   2.381       .  S
O1637      H1674   0.990       .  S
O1638      H1669   0.990       .  S
O1638      H1683   0.990       .  S
O1640      H1666   0.964       .  S
O1641     Zr1651   2.375       .  S
O1642     Zr1651   2.377       .  S
O1642      H1667   0.967       .  S
C1643      C2082   1.466       .  S
C1644      C2117   1.494       .  S
O1646      H1682   0.990       .  S
O1647      C1649   1.277       .  A
O1648      C1649   1.291       .  A
C1649      C2101   1.476       .  S
O1650     Zr1651   2.436       .  S
O1650      H1679   0.990       .  S
Zr1651     O1654   2.436       .  S
Zr1651     O1655   2.439       .  S
Zr1651     O1656   2.421       .  S
O1652      C1657   1.285       .  A
O1653      H1670   0.990       .  S
O1653      H1685   0.990       .  S
O1654      H1671   0.990       .  S
O1655      H1675   0.990       .  S
O1655      H1684   0.990       .  S
O1656      C1657   1.283       .  A
O1658      H1677   0.991       .  S
O1658      H1681   0.990       .  S
O1659      H1673   0.990       .  S
O1659      H1680   0.990       .  S
O1660      C1664   1.290       .  A
O1661      C1664   1.277       .  A
O1662      H1672   0.990       .  S
O1663      H1676   0.990       .  S
C1664      C2066   1.472       .  S
C1687      C2053   1.580       .  S
C1687      C2114   1.603       .  S
C1687      C2130   1.588       .  S
C1687      C2149   1.603       .  S
C1688      C2034   1.587       .  S
C1688      C2085   1.571       .  S
Zr1689     O1690   2.439       .  S
Zr1689     O1691   2.436       .  S
O1690      H1746   0.990       .  S
O1690      H1754   0.990       .  S
O1691      C1711   1.285       .  A
O1692      C1713   1.300       .  A
O1693     Zr1703   2.399       .  S
O1693      C1712   1.276       .  A
O1694     Zr1702   2.373       .  S
O1694      C1713   1.272       .  A
O1695      C1712   1.300       .  A
O1696     Zr1704   2.392       .  S
O1696      C1711   1.277       .  A
O1697     Zr1702   2.381       .  S
O1698     Zr1703   2.367       .  S
O1698      H1733   0.966       .  S
O1699     Zr1702   2.395       .  S
O1699      H1736   0.966       .  S
O1700     Zr1703   2.386       .  S
Zr1701     O1726   2.438       .  S
Zr1701     O1720   2.433       .  S
Zr1701     O1728   2.491       .  S
Zr1701     O1710   2.395       .  S
Zr1702     O1721   2.438       .  S
Zr1702     O1714   2.436       .  S
Zr1702     O1715   2.375       .  S
Zr1702     O1708   2.388       .  S
Zr1702     O1709   2.379       .  S
Zr1703     O1705   2.435       .  S
Zr1703     O1727   2.441       .  S
Zr1703     O1729   2.369       .  S
Zr1703     O1707   2.388       .  S
O1705      H1742   0.990       .  S
O1706      H1737   0.990       .  S
O1706      H1751   0.990       .  S
O1708      H1734   0.966       .  S
O1710     Zr1719   2.381       .  S
C1711      C1970   1.459       .  S
C1712      C1986   1.521       .  S
C1713      C2005   1.490       .  S
O1714      H1750   0.990       .  S
O1715      C1717   1.270       .  A
O1716      C1717   1.296       .  A
C1717      C1938   1.507       .  S
O1718     Zr1719   2.436       .  S
O1718      H1747   0.990       .  S
Zr1719     O1724   2.390       .  S
O1720      C1725   1.285       .  A
O1721      H1738   0.990       .  S
O1721      H1753   0.989       .  S
O1723      H1752   0.989       .  S
O1724      C1725   1.277       .  A
C1725      C2018   1.459       .  S
O1726      H1745   0.990       .  S
O1726      H1749   0.990       .  S
O1727      H1741   0.990       .  S
O1727      H1748   0.990       .  S
O1729      C1732   1.272       .  A
O1731      H1744   0.990       .  S
C1732      C1954   1.479       .  S
C1755      C1922   1.582       .  S
C1755      C1941   1.569       .  S
C1755      C1957   1.604       .  S
C1755      C1973   1.580       .  S
C1756      C1989   1.583       .  S
C1756      C2002   1.609       .  S
C1756      C2021   1.585       .  S
C1756      C2050   1.618       .  S
Zr1757     O1758   2.441       .  S
Zr1757     O1759   2.442       .  S
Zr1757     O1760   2.450       .  S
Zr1757     O1763   2.442       .  S
Zr1757     O1765   2.391       .  S
Zr1757     O1766   2.378       .  S
Zr1757     O1767   2.410       .  S
Zr1757     O1768   2.405       .  S
O1758      H1814   0.990       .  S
O1758      H1822   0.990       .  S
O1759      C1779   1.285       .  A
O1760      C1781   1.286       .  A
O1761     Zr1771   2.422       .  S
O1761      C1780   1.284       .  A
O1762     Zr1770   2.407       .  S
O1762      C1781   1.281       .  A
O1763      C1780   1.285       .  A
O1764     Zr1772   2.410       .  S
O1764      C1779   1.281       .  A
O1765     Zr1770   2.396       .  S
O1765     Zr1772   2.381       .  S
O1766     Zr1771   2.368       .  S
O1766     Zr1772   2.377       .  S
O1766      H1801   0.965       .  S
O1767     Zr1770   2.398       .  S
O1767     Zr1787   2.392       .  S
O1767      H1804   0.966       .  S
O1768     Zr1771   2.375       .  S
O1768     Zr1787   2.393       .  S
Zr1769     O1794   2.440       .  S
Zr1769     O1788   2.436       .  S
Zr1769     O1796   2.462       .  S
Zr1769     O1784   2.469       .  S
Zr1769     O1775   2.403       .  S
Zr1769     O1776   2.403       .  S
Zr1769     O1777   2.378       .  S
Zr1769     O1778   2.390       .  S
Zr1770     O1789   2.436       .  S
Zr1770     O1782   2.437       .  S
Zr1770     O1783   2.428       .  S
Zr1770     O1776   2.389       .  S
Zr1770     O1777   2.382       .  S
Zr1771     O1773   2.435       .  S
Zr1771     O1795   2.441       .  S
Zr1771     O1797   2.388       .  S
Zr1771     O1775   2.398       .  S
Zr1771     O1778   2.389       .  S
Zr1772     O1798   2.436       .  S
Zr1772     O1799   2.434       .  S
Zr1772     O1774   2.436       .  S
Zr1772     O1775   2.386       .  S
Zr1772     O1776   2.389       .  S
O1773      H1810   0.990   1_565  S
O1774      H1805   0.990       .  S
O1774      H1819   0.990       .  S
O1776      H1802   0.966       .  S
O1777     Zr1787   2.378       .  S
O1778     Zr1787   2.376       .  S
O1778      H1803   0.964       .  S
C1779      C1906   1.494       .  S
C1780      C1858   1.500       .  S
C1781      C1842   1.475       .  S
O1782      H1818   0.990       .  S
O1783      C1785   1.286       .  A
O1784      C1785   1.291       .  A
C1785      C1874   1.513       .  S
O1786     Zr1787   2.436       .  S
O1786      H1815   0.990       .  S
Zr1787     O1790   2.436       .  S
Zr1787     O1791   2.442       .  S
Zr1787     O1792   2.413       .  S
O1788      C1793   1.283       .  A
O1789      H1806   0.990       .  S
O1789      H1821   0.990       .  S
O1790      H1807   0.990       .  S
O1791      H1811   0.990       .  S
O1791      H1820   0.990       .  S
O1792      C1793   1.281       .  A
C1793      C1826   1.498       .  S
O1794      H1813   0.990       .  S
O1794      H1817   0.991       .  S
O1795      H1809   0.990       .  S
O1795      H1816   0.990       .  S
O1796      C1800   1.289       .  A
O1797      C1800   1.276       .  A
O1798      H1808   0.990       .  S
O1799      H1812   0.990       .  S
C1823      C1861   1.576       .  S
C1823      C2037   1.588       .  S
C1824      C1877   1.598       .  S
C1824      C1890   1.573       .  S
C1824      C1909   1.559       .  S
C1824      C1925   1.587       .  S
C1825      C1826   1.408       .  A
C1825      C1830   1.403       .  A
C1825      H1832   1.084       .  S
C1826      C1827   1.417       .  A
C1827      C1834   1.509       .  S
C1827      C1828   1.403       .  A
C1828      C1829   1.416       .  A
C1828      H1833   1.078       .  S
C1829      C1830   1.429       .  A
C1830      C1831   1.512       .  S
C1831      H1835   1.111       .  S
C1831      H1836   1.102       .  S
C1831      H1837   1.110       .  S
C1834      H1838   1.110       .  S
C1834      H1839   1.110       .  S
C1834      H1840   1.111       .  S
C1841      C1842   1.397       .  A
C1841      C1846   1.396       .  A
C1841      H1848   1.086       .  S
C1842      C1843   1.403       .  A
C1843      C1850   1.507       .  S
C1843      C1844   1.405       .  A
C1844      C1845   1.428       .  A
C1845      C1846   1.433       .  A
C1846      C1847   1.504       .  S
C1847      H1851   1.111       .  S
C1847      H1852   1.111       .  S
C1847      H1853   1.083       .  S
C1850      H1854   1.110       .  S
C1850      H1855   1.110       .  S
C1857      C1858   1.402       .  A
C1857      C1862   1.399       .  A
C1857      H1864   1.085       .  S
C1858      C1859   1.416       .  A
C1859      C1866   1.507       .  S
C1859      C1860   1.411       .  A
C1860      C1861   1.416       .  A
C1861      C1862   1.439       .  A
C1863      H1867   1.112       .  S
C1863      H1868   1.097       .  S
C1863      H1869   1.110       .  S
C1866      H1870   1.107       .  S
C1866      H1871   1.110       .  S
C1873      C1874   1.405       .  A
C1873      C1878   1.410       .  A
C1873      H1880   1.084       .  S
C1874      C1875   1.416       .  A
C1875      C1882   1.506       .  S
C1875      C1876   1.412       .  A
C1876      C1877   1.422       .  A
C1876      H1881   1.080       .  S
C1877      C1878   1.443       .  A
C1878      C1879   1.515       .  S
C1879      H1883   1.112       .  S
C1879      H1884   1.107       .  S
C1879      H1885   1.101       .  S
C1882      H1886   1.110       .  S
C1882      H1887   1.109       .  S
C1882      H1888   1.111       .  S
C1889      C1890   1.418       .  A
C1889      C1894   1.401       .  A
C1889      H1896   1.083       .  S
C1890      C1891   1.452       .  A
C1891      C1898   1.512       .  S
C1891      C1892   1.401       .  A
C1892      C1893   1.386       .  A
C1892      H1897   1.086       .  S
C1893      C1894   1.408       .  A
C1895      H1899   1.111       .  S
C1895      H1900   1.111   1_545  S
C1895      H1901   1.107   1_545  S
C1898      H1902   1.091       .  S
C1898      H1903   1.110       .  S
C1898      H1904   1.112       .  S
C1905      C1906   1.409       .  A
C1905      H1912   1.084       .  S
C1907      C1914   1.505       .  S
C1907      C1908   1.402       .  A
C1908      C1909   1.415       .  A
C1908      H1913   1.078       .  S
C1909      C1910   1.430       .  A
C1910      C1911   1.512       .  S
C1911      H1915   1.111       .  S
C1911      H1916   1.110       .  S
C1911      H1917   1.100       .  S
C1914      H1920   1.111       .  S
C1921      C1922   1.409       .  A
C1921      C1926   1.402       .  A
C1921      H1928   1.076       .  S
C1922      C1923   1.430       .  A
C1923      C1930   1.513       .  S
C1923      C1924   1.410       .  A
C1924      C1925   1.418       .  A
C1924      H1929   1.076       .  S
C1925      C1926   1.436       .  A
C1926      C1927   1.511       .  S
C1927      H1931   1.111       .  S
C1927      H1932   1.099       .  S
C1927      H1933   1.103       .  S
C1930      H1934   1.107       .  S
C1930      H1935   1.107       .  S
C1930      H1936   1.111       .  S
C1937      C1938   1.403       .  A
C1937      C1942   1.416       .  A
C1937      H1944   1.084       .  S
C1938      C1939   1.430       .  A
C1939      C1946   1.514       .  S
C1939      C1940   1.396       .  A
C1940      C1941   1.404       .  A
C1940      H1945   1.077       .  S
C1941      C1942   1.441       .  A
C1942      C1943   1.514       .  S
C1943      H1947   1.111       .  S
C1943      H1948   1.107       .  S
C1943      H1949   1.108       .  S
C1946      H1950   1.109       .  S
C1946      H1951   1.109       .  S
C1946      H1952   1.111       .  S
C1953      C1954   1.393       .  A
C1953      C1958   1.402       .  A
C1953      H1960   1.087       .  S
C1954      C1955   1.403       .  A
C1955      C1962   1.506       .  S
C1955      C1956   1.414       .  A
C1956      C1957   1.432       .  A
C1956      H1961   1.076       .  S
C1957      C1958   1.445       .  A
C1958      C1959   1.508       .  S
C1959      H1963   1.111       .  S
C1959      H1964   1.086       .  S
C1959      H1965   1.111       .  S
C1962      H1967   1.110       .  S
C1962      H1968   1.111       .  S
C1969      C1970   1.393       .  A
C1969      C1974   1.408       .  A
C1969      H1976   1.085       .  S
C1970      C1971   1.397       .  A
C1971      C1978   1.509       .  S
C1971      C1972   1.386       .  A
C1972      C1973   1.425       .  A
C1972      H1977   1.083       .  S
C1973      C1974   1.451       .  A
C1974      C1975   1.520       .  S
C1975      H1979   1.102       .  S
C1975      H1980   1.102       .  S
C1975      H1981   1.111       .  S
C1978      H1982   1.107       .  S
C1978      H1983   1.110       .  S
C1978      H1984   1.111       .  S
C1985      C1986   1.406       .  A
C1985      C1990   1.419       .  A
C1985      H1992   1.084       .  S
C1986      C1987   1.431       .  A
C1987      C1994   1.512       .  S
C1987      C1988   1.405       .  A
C1988      C1989   1.410       .  A
C1988      H1993   1.078       .  S
C1989      C1990   1.442       .  A
C1990      C1991   1.512       .  S
C1991      H1995   1.110       .  S
C1991      H1996   1.110       .  S
C1991      H1997   1.103       .  S
C1994      H1998   1.110       .  S
C1994      H1999   1.109       .  S
C1994      H2000   1.111       .  S
C2001      C2002   1.426       .  A
C2001      C2006   1.406       .  A
C2001      H2008   1.080       .  S
C2002      C2003   1.435       .  A
C2003      C2010   1.495       .  S
C2003      C2004   1.421       .  A
C2004      C2005   1.401       .  A
C2004      H2009   1.084       .  S
C2005      C2006   1.409       .  A
C2006      C2007   1.509       .  S
C2007      H2011   1.111       .  S
C2007      H2012   1.111       .  S
C2007      H2013   1.108       .  S
C2010      H2014   1.100       .  S
C2010      H2015   1.108       .  S
C2010      H2016   1.111       .  S
C2017      C2018   1.390       .  A
C2017      C2022   1.406       .  A
C2017      H2024   1.086       .  S
C2018      C2019   1.396       .  A
C2019      C2026   1.509       .  S
C2019      C2020   1.391       .  A
C2020      C2021   1.424       .  A
C2020      H2025   1.082       .  S
C2021      C2022   1.452       .  A
C2022      C2023   1.517       .  S
C2023      H2027   1.112       .  S
C2023      H2028   1.105       .  S
C2023      H2029   1.102       .  S
C2026      H2030   1.111       .  S
C2026      H2031   1.108       .  S
C2026      H2032   1.111       .  S
C2033      C2038   1.412   1_556  A
C2033      H2040   1.083       .  S
C2035      C2042   1.516   1_455  S
C2035      C2036   1.404   1_456  A
C2036      H2041   1.083       .  S
C2037      C2038   1.441       .  A
C2038      C2039   1.514       .  S
C2039      H2043   1.111   1_554  S
C2039      H2044   1.106       .  S
C2039      H2045   1.104       .  S
C2042      H2046   1.110       .  S
C2042      H2047   1.096   1_655  S
C2042      H2048   1.112   1_656  S
C2049      C2050   1.429       .  A
C2049      C2054   1.411       .  A
C2049      H2056   1.079       .  S
C2050      C2051   1.441       .  A
C2051      C2058   1.512       .  S
C2051      C2052   1.415       .  A
C2052      C2053   1.417       .  A
C2052      H2057   1.079       .  S
C2053      C2054   1.427       .  A
C2054      C2055   1.511       .  S
C2055      H2059   1.109       .  S
C2055      H2060   1.110       .  S
C2055      H2061   1.096       .  S
C2058      H2062   1.108       .  S
C2058      H2063   1.106       .  S
C2058      H2064   1.110       .  S
C2065      C2066   1.392       .  A
C2065      C2070   1.401       .  A
C2065      H2072   1.085       .  S
C2066      C2067   1.403       .  A
C2067      C2068   1.407       .  A
C2068      C2069   1.425       .  A
C2069      C2070   1.442       .  A
C2070      C2071   1.508   1_565  S
C2071      H2075   1.111   1_545  S
C2071      H2076   1.098   1_655  S
C2071      H2077   1.106       .  S
C2074      H2079   1.110       .  S
C2074      H2080   1.111       .  S
C2081      C2082   1.400       .  A
C2081      C2086   1.401       .  A
C2081      H2088   1.085       .  S
C2082      C2083   1.398       .  A
C2083      C2090   1.511       .  S
C2083      C2084   1.395       .  A
C2084      C2085   1.427       .  A
C2085      C2086   1.434       .  A
C2086      C2087   1.514       .  S
C2087      H2091   1.111       .  S
C2087      H2092   1.107       .  S
C2087      H2093   1.101       .  S
C2090      H2094   1.110       .  S
C2090      H2095   1.110       .  S
C2097      C2098   1.417   1_655  A
C2097      C2102   1.397       .  A
C2097      H2104   1.084       .  S
C2098      C2099   1.453       .  A
C2099      C2106   1.519       .  S
C2099      C2100   1.412       .  A
C2100      C2101   1.392   1_455  A
C2100      H2105   1.085       .  S
C2101      C2102   1.407       .  A
C2102      C2103   1.508       .  S
C2103      H2107   1.111       .  S
C2103      H2108   1.105       .  S
C2103      H2109   1.110       .  S
C2106      H2110   1.100       .  S
C2106      H2112   1.111       .  S
C2113      C2114   1.423       .  A
C2113      C2118   1.411       .  A
C2113      H2120   1.082       .  S
C2114      C2115   1.450       .  A
C2115      C2122   1.506       .  S
C2115      C2116   1.412       .  A
C2116      C2117   1.393       .  A
C2116      H2121   1.086       .  S
C2117      C2118   1.411       .  A
C2118      C2119   1.507       .  S
C2119      H2123   1.111       .  S
C2119      H2124   1.107       .  S
C2119      H2125   1.111       .  S
C2122      H2126   1.085       .  S
C2122      H2127   1.111       .  S
C2122      H2128   1.109       .  S
C2129      C2130   1.429       .  A
C2129      C2134   1.404       .  A
C2129      H2136   1.078       .  S
C2130      C2131   1.434       .  A
C2131      C2138   1.506       .  S
C2131      C2132   1.404       .  A
C2132      C2133   1.397       .  A
C2133      C2134   1.405       .  A
C2134      C2135   1.509       .  S
C2135      H2139   1.111       .  S
C2135      H2140   1.110       .  S
C2135      H2141   1.110       .  S
C2138      H2142   1.105       .  S
C2138      H2143   1.098       .  S
C2138      H2144   1.111       .  S
C2145      C2146   1.393       .  A
C2145      C2150   1.411       .  A
C2146      C2147   1.426       .  A
C2147      C2154   1.511       .  S
C2147      C2148   1.408       .  A
C2148      C2149   1.414       .  A
C2148      H2153   1.076       .  S
C2149      C2150   1.447       .  A
C2150      C2151   1.502       .  S
C2151      H2155   1.111       .  S
C2151      H2156   1.104       .  S
C2151      H2157   1.106       .  S
C2154      H2158   1.109       .  S
C2154      H2159   1.109       .  S
C2154      H2160   1.111       .  S
