geometry optimzed in LAMMPS
_audit_creation_date              2020-11-30 
_audit_creation_method            'lammps2cif' 
_symmetry_space_group_name_H-M    'P1' 
_symmetry_Int_Tables_number       1 
_symmetry_cell_setting            triclinic 
loop_ 
_symmetry_equiv_pos_as_xyz 
  x,y,z 
_cell_length_a                    45.63375164 
_cell_length_b                    45.2341207162572 
_cell_length_c                    45.386442651048824 
_cell_angle_alpha                 90.1811205470454 
_cell_angle_beta                  89.88412307021076 
_cell_angle_gamma                 90.0554014748089 
loop_ 
_atom_site_label 
_atom_site_type_symbol 
_atom_site_fract_x 
_atom_site_fract_y 
_atom_site_fract_z 
_atom_site_charge 
In1        In  0.87003498  0.11614537  0.00327968     1.36900
C2          C  0.87135206  0.17087029  0.02594964     0.77000
O3          O  0.86834244  0.09952692  0.04950398    -0.61500
O4          O  0.87953014  0.06840758  0.01644067    -0.52400
C5          C  0.81522002  0.11249050  0.98238391     0.69700
O6          O  0.83638554  0.12090365  0.96658735    -0.47200
C7          C  0.91427890  0.11364623  0.96461673     0.74400
O8          O  0.85445887  0.16324351  0.00534387    -0.59100
O9          O  0.89077652  0.09942356  0.96113599    -0.49200
O10         O  0.88811512  0.15054080  0.03456802    -0.55500
C11         C  0.87492324  0.07324356  0.04343931     0.84500
O12         O  0.82260727  0.10506867  0.00806803    -0.57400
O13         O  0.91555827  0.12826178  0.98820188    -0.60700
In14       In  0.87288347  0.01136811  0.10986893     1.36900
C15         C  0.87784385  0.03496936  0.16358057     0.77000
O16         O  0.89257427  0.96877727  0.12616688    -0.61500
O17         O  0.91792091  0.99467542  0.09685588    -0.52400
C18         C  0.81797234  0.99248737  0.09965094     0.69700
O19         O  0.82458051  0.01847308  0.10702460    -0.47200
C20         C  0.87599340  0.05058272  0.06648727     0.74400
O21         O  0.86007751  0.01465075  0.15708255    -0.59100
O22         O  0.87850582  0.02316893  0.06153543    -0.49200
O23         O  0.89310866  0.04391925  0.14225123    -0.55500
C24         C  0.91640413  0.97175399  0.11252565     0.84500
O25         O  0.83976346  0.97549621  0.09743084    -0.57400
O26         O  0.87325685  0.05749065  0.09324915    -0.60700
In27       In  0.97871557  0.11849850  0.90043744     1.36900
C28         C  0.95546444  0.11071788  0.84712987     0.77000
O29         O  0.02339963  0.10098890  0.88987570    -0.61500
O30         O  0.99637763  0.07492816  0.91756747    -0.52400
C31         C  0.00309410  0.17244326  0.89888938     0.69700
O32         O  0.98322888  0.16384553  0.88170492    -0.47200
C33         C  0.93778731  0.11422589  0.94247002     0.74400
O34         O  0.94370986  0.12734287  0.86611239    -0.59100
O35         O  0.93586582  0.10097035  0.91812722    -0.49200
O36         O  0.97804728  0.09746781  0.85600073    -0.55500
C37         C  0.02055713  0.07747581  0.90427999     0.84500
O38         O  0.00962427  0.15377647  0.91837817    -0.57400
O39         O  0.96104969  0.12890194  0.94581402    -0.60700
In40       In  0.98210686  0.90874739  0.11529388     1.36900
C41         C  0.01005075  0.91401558  0.16720913     0.77000
O42         O  0.02567242  0.89309273  0.09691005    -0.61500
O43         O  0.00145957  0.92436718  0.07241294    -0.52400
C44         C  0.95188923  0.85972991  0.10158633     0.69700
O45         O  0.95887982  0.86619387  0.12767761    -0.47200
C46         C  0.94021382  0.94999479  0.11454543     0.74400
O47         O  0.00158281  0.88973229  0.15659711    -0.59100
O48         O  0.96465516  0.95345025  0.10210045    -0.49200
O49         O  0.00462993  0.93587678  0.15088583    -0.55500
C50         C  0.02401955  0.90852106  0.07390324     0.84500
O51         O  0.95993917  0.87867134  0.08304119    -0.57400
O52         O  0.93765764  0.92611496  0.12854773    -0.60700
In53       In  0.08762397  0.90835744  0.00842158     1.36900
C54         C  0.14158647  0.92231073  0.02553720     0.77000
O55         O  0.07721116  0.92435388  0.96310945    -0.61500
O56         O  0.08714434  0.95672613  0.99559606    -0.52400
C57         C  0.08765164  0.85403207  0.98460882     0.69700
O58         O  0.10492077  0.86190771  0.00479265    -0.47200
C59         C  0.04635105  0.90809577  0.05055234     0.74400
O60         O  0.12014502  0.92232707  0.04307091    -0.59100
O61         O  0.04418884  0.92314300  0.02737304    -0.49200
O62         O  0.13532368  0.91463262  0.99961103    -0.55500
C63         C  0.08129360  0.95128569  0.96896189     0.84500
O64         O  0.06991138  0.87383412  0.97683939    -0.57400
O65         O  0.06921594  0.89271036  0.05199782    -0.60700
In66       In  0.08428632  0.01286629  0.90192200     1.36900
C67         C  0.13851016  0.03548462  0.90673214     0.77000
O68         O  0.06535444  0.05608269  0.88751372    -0.61500
O69         O  0.04250205  0.03214656  0.92059669    -0.52400
C70         C  0.07487838  0.98642073  0.84963035     0.69700
O71         O  0.10004909  0.99378274  0.85835164    -0.47200
C72         C  0.08085735  0.97390710  0.94588348     0.74400
O73         O  0.13297197  0.00824909  0.90474290    -0.59100
O74         O  0.08586845  0.00095498  0.95049710    -0.49200
O75         O  0.11604887  0.05164619  0.90584946    -0.55500
C76         C  0.04340764  0.05472152  0.90437698     0.84500
O77         O  0.05482740  0.99290441  0.86755549    -0.57400
O78         O  0.07672838  0.96725778  0.91930158    -0.60700
C79         C  0.54634116  0.45149992  0.72668144     0.85900
C80         C  0.52703061  0.42969721  0.70886789    -0.54300
C81         C  0.52478277  0.43595106  0.67957784     0.08800
C82         C  0.54153498  0.46391217  0.67058657     0.19800
C83         C  0.57580804  0.45186784  0.71005722    -0.55100
C84         C  0.57326435  0.45844391  0.68064804     0.08900
C85         C  0.53184731  0.48146927  0.72007168    -0.54600
C86         C  0.52975508  0.48816265  0.69095759     0.09500
H87         H  0.51492614  0.41148229  0.71852914     0.14000
H88         H  0.53895730  0.46973013  0.64705828    -0.00300
H89         H  0.59662193  0.44691656  0.72046400     0.14300
H90         H  0.52055867  0.49455044  0.73663882     0.14100
C91         C  0.70666820  0.44334054  0.56156408     0.85900
C92         C  0.68957923  0.44195568  0.59072675    -0.54300
C93         C  0.66073661  0.45019762  0.58828917     0.08800
C94         C  0.65161738  0.45890865  0.55673020     0.19800
C95         C  0.68878401  0.42447914  0.53978082    -0.55100
C96         C  0.66010078  0.43241364  0.53712099     0.08900
C97         C  0.70173243  0.47499842  0.55011758    -0.54600
C98         C  0.67315585  0.48327724  0.54762198     0.09500
H99         H  0.69966496  0.43597828  0.61150655     0.14000
H100        H  0.62831974  0.46561690  0.55480417    -0.00300
H101        H  0.69806370  0.40666566  0.52688713     0.14300
H102        H  0.71920596  0.48890666  0.54167754     0.14100
C103        C  0.71247326  0.58504980  0.42190593     0.85900
C104        C  0.69509687  0.56210663  0.40370199    -0.54300
C105        C  0.66626143  0.55905056  0.41150923     0.08800
C106        C  0.65745365  0.57980982  0.43707335     0.19800
C107        C  0.69494093  0.61388421  0.41925556    -0.55100
C108        C  0.66602615  0.61117262  0.42702968     0.08900
C109        C  0.70735066  0.57457423  0.45388244    -0.54600
C110        C  0.67866490  0.57204365  0.46187140     0.09500
H111        H  0.70500038  0.54962256  0.38596917     0.14000
H112        H  0.63434901  0.57794011  0.44428397    -0.00300
H113        H  0.70469326  0.63457897  0.41218124     0.14300
H114        H  0.72456897  0.56599840  0.46787209     0.14100
C115        C  0.54706590  0.74531619  0.41274890     0.85900
C116        C  0.57669855  0.72912417  0.41485045    -0.54300
C117        C  0.57418678  0.69961003  0.42158349     0.08800
C118        C  0.54230540  0.68899813  0.42553341     0.19800
C119        C  0.52929884  0.72695082  0.39027771    -0.55100
C120        C  0.52631873  0.69767656  0.39704921     0.08900
C121        C  0.53131840  0.73863713  0.44213101    -0.54600
C122        C  0.52938336  0.70939492  0.44895679     0.09500
H123        H  0.59765100  0.73997601  0.41141753     0.14000
H124        H  0.54003323  0.66540859  0.43159779    -0.00300
H125        H  0.51812990  0.73634739  0.37151817     0.14300
H126        H  0.52098017  0.75543845  0.45573974     0.14100
C127        C  0.41003934  0.74715404  0.55226379     0.85900
C128        C  0.38641021  0.73092576  0.53425077    -0.54300
C129        C  0.39005801  0.70104984  0.53251170     0.08800
C130        C  0.41763151  0.68985018  0.54841034     0.19800
C131        C  0.41035359  0.73136931  0.58225105    -0.55100
C132        C  0.41460670  0.70138909  0.58035495     0.08900
C133        C  0.43871481  0.73759523  0.53696511    -0.54600
C134        C  0.44282682  0.70785230  0.53491594     0.09500
H135        H  0.36823866  0.74212542  0.52374404     0.14000
H136        H  0.42064103  0.66558878  0.54661860    -0.00300
H137        H  0.40771627  0.74293896  0.60308096     0.14300
H138        H  0.45377017  0.75256999  0.52611949     0.14100
C139        C  0.39764381  0.58644427  0.71833720     0.85900
C140        C  0.40191381  0.61664937  0.70314687    -0.54300
C141        C  0.41021024  0.61459657  0.67399657     0.08800
C142        C  0.41405913  0.58249770  0.66304710     0.19800
C143        C  0.37606482  0.56946286  0.69819378    -0.55100
C144        C  0.38438475  0.56804771  0.66929005     0.08900
C145        C  0.42662294  0.56986797  0.71321803    -0.54600
C146        C  0.43527516  0.56798402  0.68473945     0.09500
H147        H  0.39841698  0.63753783  0.71442025     0.14000
H148        H  0.42090175  0.58030038  0.63965592    -0.00300
H149        H  0.35682959  0.55778331  0.70589401     0.14300
H150        H  0.43867970  0.55856266  0.73044418     0.14100
C151        C  0.42762130  0.61025680  0.28084242     0.85900
C152        C  0.39688419  0.61017523  0.29536405    -0.54300
C153        C  0.39785184  0.60393798  0.32510173     0.08800
C154        C  0.42900222  0.59796995  0.33706741     0.19800
C155        C  0.44498419  0.63250270  0.29983613    -0.55100
C156        C  0.44635754  0.62570297  0.32891931     0.08900
C157        C  0.43987118  0.57968185  0.28820555    -0.54600
C158        C  0.44137804  0.57339479  0.31741483     0.09500
H159        H  0.37677161  0.61607284  0.28416676     0.14000
H160        H  0.42979624  0.59262231  0.36093509    -0.00300
H161        H  0.45618747  0.65164931  0.29077365     0.14300
H162        H  0.45032116  0.56568140  0.27172828     0.14100
C163        C  0.26610897  0.60601969  0.44804426     0.85900
C164        C  0.28301050  0.62698329  0.46851925    -0.54300
C165        C  0.31231723  0.62255891  0.46909457     0.08800
C166        C  0.32290927  0.59790285  0.44817560     0.19800
C167        C  0.28067147  0.61071619  0.41738353    -0.55100
C168        C  0.31069305  0.60657578  0.41767370     0.08900
C169        C  0.27572727  0.57479533  0.45642265    -0.54600
C170        C  0.30520576  0.57022958  0.45659903     0.09500
H171        H  0.27251769  0.64420861  0.48153026     0.14000
H172        H  0.34699354  0.59442425  0.44860683    -0.00300
H173        H  0.26891971  0.61660945  0.39753033     0.14300
H174        H  0.26016408  0.55794964  0.46321911     0.14100
C175        C  0.57322043  0.30868966  0.44694929     0.85900
C176        C  0.56971106  0.32468760  0.41736473    -0.54300
C177        C  0.56069891  0.35352735  0.42011678     0.08800
C178        C  0.55545021  0.36361311  0.45230156     0.19800
C179        C  0.59411395  0.32907572  0.46484128    -0.55100
C180        C  0.58472424  0.35762015  0.46753004     0.08900
C181        C  0.54367796  0.31248296  0.46249710    -0.54600
C182        C  0.53441673  0.34085248  0.46585929     0.09500
H183        H  0.57476695  0.31447469  0.39628276     0.14000
H184        H  0.54798964  0.38688326  0.45453607    -0.00300
H185        H  0.61430307  0.32233280  0.47525239     0.14300
H186        H  0.53262813  0.29422347  0.47343028     0.14100
C187        C  0.57375465  0.47542345  0.28938998     0.85900
C188        C  0.59564106  0.48949477  0.31124506    -0.54300
C189        C  0.58618377  0.49071948  0.33987876     0.08800
C190        C  0.55573480  0.47671328  0.34430919     0.19800
C191        C  0.56858217  0.44438823  0.30271057    -0.55100
C192        C  0.55923852  0.44516743  0.33161527     0.08900
C193        C  0.54491468  0.49156230  0.29426502    -0.54600
C194        C  0.53563143  0.49294640  0.32257615     0.09500
H195        H  0.61702497  0.49770684  0.30464428     0.14000
H196        H  0.54792018  0.47702870  0.36741440    -0.00300
H197        H  0.57347450  0.42384135  0.29136069     0.14300
H198        H  0.53353196  0.50306464  0.27664868     0.14100
C199        C  0.43019435  0.31131744  0.59913836     0.85900
C200        C  0.44644304  0.33251902  0.62053777    -0.54300
C201        C  0.44978641  0.36057605  0.61012862     0.08800
C202        C  0.43682411  0.36542361  0.57946992     0.19800
C203        C  0.40113772  0.32729964  0.59308330    -0.55100
C204        C  0.40446128  0.35558133  0.58271497     0.08900
C205        C  0.44784860  0.31382489  0.57050381    -0.54600
C206        C  0.45186819  0.34177494  0.56047692     0.09500
H207        H  0.45581638  0.32665101  0.64155140     0.14000
H208        H  0.43998042  0.38834288  0.57134476    -0.00300
H209        H  0.37984914  0.31767083  0.59771878     0.14300
H210        H  0.45862746  0.29497704  0.56023808     0.14100
C211        C  0.26738204  0.47221423  0.57655534     0.85900
C212        C  0.28299688  0.44185533  0.57893231    -0.54300
C213        C  0.31269376  0.44344619  0.57330497     0.08800
C214        C  0.32372516  0.47477394  0.56591738     0.19800
C215        C  0.28481380  0.49176353  0.59796998    -0.55100
C216        C  0.31414197  0.49409439  0.59236045     0.08900
C217        C  0.27565500  0.48310042  0.54560234    -0.54600
C218        C  0.30489474  0.48486841  0.54007208     0.09500
H219        H  0.27247745  0.42115455  0.58435584     0.14000
H220        H  0.34718055  0.47548422  0.56016357    -0.00300
H221        H  0.27413581  0.50278322  0.61633768     0.14300
H222        H  0.25939665  0.49061111  0.52983982     0.14100
In223      In  0.58253873  0.51972522  0.10710507     1.36900
C224        C  0.58356213  0.50088946  0.16333306     0.77000
O225        O  0.53607857  0.53435808  0.11710600    -0.61500
O226        O  0.56011410  0.55851026  0.08550569    -0.52400
C227        C  0.63740479  0.54100081  0.10383982     0.69700
O228        O  0.63047755  0.51435662  0.09926341    -0.47200
C229        C  0.57871527  0.47934407  0.06392789     0.74400
O230        O  0.59306546  0.52570976  0.15503052    -0.59100
O231        O  0.57442404  0.47332725  0.09066063    -0.49200
O232        O  0.57313148  0.48545576  0.14265544    -0.55500
C233        C  0.53658427  0.55590871  0.09967853     0.84500
O234        O  0.61587517  0.55725401  0.11023405    -0.57400
O235        O  0.58428248  0.50615010  0.05902729    -0.60700
In236      In  0.47301093  0.62108488  0.09948129     1.36900
C237        C  0.45372885  0.62282520  0.15515727     0.77000
O238        O  0.43083783  0.60317767  0.08032957    -0.61500
O239        O  0.45835985  0.62841556  0.05256930    -0.52400
C240        C  0.49242883  0.67679977  0.09612497     0.69700
O241        O  0.50939345  0.65484600  0.09515925    -0.47200
C242        C  0.51261929  0.57742633  0.09749725     0.74400
O243        O  0.47955301  0.62912577  0.14743480    -0.59100
O244        O  0.51395605  0.59977402  0.08115801    -0.49200
O245        O  0.43709580  0.61613545  0.13399813    -0.55500
C246        C  0.43427718  0.61525388  0.05562940     0.84500
O247        O  0.46581271  0.66994505  0.09919746    -0.57400
O248        O  0.48989990  0.57612355  0.11314947    -0.60700
In249      In  0.58295605  0.41367797  0.00026693     1.36900
C250        C  0.57932594  0.36208669  0.02884875     0.77000
O251        O  0.58568854  0.46169507  0.01435490    -0.61500
O252        O  0.57235699  0.43001119  0.04596015    -0.52400
C253        C  0.63816175  0.41903951  0.97952513     0.69700
O254        O  0.63129038  0.41969790  0.00638870    -0.47200
C255        C  0.53995428  0.41562271  0.95933621     0.74400
O256        O  0.60023172  0.36853977  0.01181112    -0.59100
O257        O  0.54785195  0.43787319  0.97406702    -0.49200
O258        O  0.55995237  0.38190114  0.03069018    -0.55500
C259        C  0.57854019  0.45659924  0.04071907     0.84500
O260        O  0.61647860  0.41546327  0.96267641    -0.57400
O261        O  0.55390432  0.39244870  0.96544651    -0.60700
In262      In  0.36713930  0.62465206  0.99560008     1.36900
C263        C  0.31669529  0.62085350  0.02567926     0.77000
O264        O  0.38829662  0.58887081  0.96817304    -0.61500
O265        O  0.34499172  0.60140696  0.95730146    -0.52400
C266        C  0.37344685  0.68093317  0.97785918     0.69700
O267        O  0.36935119  0.66004448  0.95978038    -0.47200
C268        C  0.41115909  0.61619428  0.03323106     0.74400
O269        O  0.33388332  0.59930788  0.02228107    -0.59100
O270        O  0.41469974  0.62824327  0.00847566    -0.49200
O271        O  0.32541746  0.64422074  0.01350157    -0.55500
C272        C  0.36639910  0.58470434  0.95183667     0.84500
O273        O  0.37446344  0.67263874  0.00428985    -0.57400
O274        O  0.38555867  0.60697750  0.03806339    -0.60700
In275      In  0.36597447  0.51961187  0.88682321     1.36900
C276        C  0.31646702  0.48699823  0.88871504     0.77000
O277        O  0.39700042  0.48712267  0.86497580    -0.61500
O278        O  0.39718539  0.49012868  0.91154514    -0.52400
C279        C  0.37479304  0.55233794  0.83832510     0.69700
O280        O  0.34994047  0.54300816  0.84608547    -0.47200
C281        C  0.36596112  0.56193862  0.92862064     0.74400
O282        O  0.33403757  0.48886065  0.91004671    -0.59100
O283        O  0.34378734  0.55620163  0.91318676    -0.49200
O284        O  0.32499913  0.50067943  0.86618224    -0.55500
C285        C  0.40830383  0.47865521  0.88884063     0.84500
O286        O  0.39507257  0.54535570  0.85580356    -0.57400
O287        O  0.38788047  0.54623351  0.92273063    -0.60700
In288      In  0.47684296  0.41851224  0.89259400     1.36900
C289        C  0.44340857  0.36973777  0.89012002     0.77000
O290        O  0.50827239  0.39405925  0.92272734    -0.61500
O291        O  0.50441967  0.44014518  0.92857780    -0.52400
C292        C  0.51149122  0.42741498  0.84574160     0.69700
O293        O  0.50273135  0.40232720  0.85388363    -0.47200
C294        C  0.43277394  0.45752359  0.89019723     0.74400
O295        O  0.46132426  0.37703308  0.87030890    -0.59100
O296        O  0.44413404  0.44929867  0.91412569    -0.49200
O297        O  0.44271587  0.38744677  0.91166333    -0.55500
C298        C  0.51686146  0.41663785  0.93649149     0.84500
O299        O  0.50328074  0.44827104  0.86238625    -0.57400
O300        O  0.44429553  0.44635694  0.86752732    -0.60700
C301        C  0.03151406  0.60795227  0.21528726     0.85900
C302        C  0.06142884  0.60328727  0.20045815    -0.54300
C303        C  0.05972800  0.59400974  0.17172165     0.08800
C304        C  0.02802465  0.58949576  0.16047933     0.19800
C305        C  0.01518944  0.62929529  0.19432976    -0.55100
C306        C  0.01338151  0.61960683  0.16588206     0.08900
C307        C  0.01517593  0.57863377  0.21115139    -0.54600
C308        C  0.01317203  0.56879822  0.18284684     0.09500
H309        H  0.08208012  0.60798916  0.21136258     0.14000
H310        H  0.02643149  0.58189200  0.13724247    -0.00300
H311        H  0.00473541  0.64977273  0.20075310     0.14300
H312        H  0.00400269  0.56750179  0.22916157     0.14100
C313        C  0.19746157  0.59843373  0.05763657     0.85900
C314        C  0.17957385  0.61827423  0.03672448    -0.54300
C315        C  0.15084540  0.61052431  0.03394939     0.08800
C316        C  0.14230191  0.58342197  0.05249033     0.19800
C317        C  0.18053871  0.59901804  0.08690017    -0.55100
C318        C  0.15170812  0.59105248  0.08422115     0.08900
C319        C  0.19227386  0.56738271  0.04464688    -0.54600
C320        C  0.16358267  0.55935782  0.04210970     0.09500
H321        H  0.18892408  0.63600856  0.02371350     0.14000
H322        H  0.11899477  0.57675573  0.05052618    -0.00300
H323        H  0.19042245  0.60514547  0.10778755     0.14300
H324        H  0.20962666  0.55398176  0.03519696     0.14100
C325        C  0.19543566  0.46006550  0.91258660     0.85900
C326        C  0.17828508  0.43088594  0.91043089    -0.54300
C327        C  0.14956500  0.43291575  0.91935080     0.08800
C328        C  0.14091804  0.46407958  0.93024847     0.19800
C329        C  0.17677472  0.48279502  0.89548519    -0.55100
C330        C  0.14845078  0.48511648  0.90489403     0.08900
C331        C  0.19165530  0.47023794  0.94473886    -0.54600
C332        C  0.16330461  0.47195106  0.95419514     0.09500
H333        H  0.18829668  0.41044105  0.90297426     0.14000
H334        H  0.11782986  0.46607900  0.93773577    -0.00300
H335        H  0.18515731  0.49681925  0.87809547     0.14300
H336        H  0.20967936  0.47862883  0.95791365     0.14100
C337        C  0.89476617  0.45231169  0.21731675     0.85900
C338        C  0.87301322  0.47093253  0.19896416    -0.54300
C339        C  0.88079339  0.47434659  0.17015770     0.08800
C340        C  0.90983224  0.45966258  0.16202444     0.19800
C341        C  0.89787302  0.42322477  0.20005387    -0.55100
C342        C  0.90537539  0.42698605  0.17096726     0.08900
C343        C  0.92398826  0.46854307  0.21268821    -0.54600
C344        C  0.93175108  0.47296178  0.18403322     0.09500
H345        H  0.85380130  0.48200326  0.20765095     0.14000
H346        H  0.91610165  0.46289835  0.13858859    -0.00300
H347        H  0.89360352  0.40173478  0.20973791     0.14300
H348        H  0.93559500  0.47941366  0.23059831     0.14100
C349        C  0.89004904  0.29471165  0.04968031     0.85900
C350        C  0.89271915  0.31119083  0.07920238    -0.54300
C351        C  0.90270908  0.33972600  0.07669173     0.08800
C352        C  0.90944328  0.34895868  0.04456922     0.19800
C353        C  0.87057991  0.31509728  0.03079566    -0.55100
C354        C  0.88110003  0.34313030  0.02714937     0.08900
C355        C  0.92040814  0.29746455  0.03513521    -0.54600
C356        C  0.93071412  0.32561332  0.03287709     0.09500
H357        H  0.88688608  0.30124981  0.10015282     0.14000
H358        H  0.91806051  0.37171558  0.04218192    -0.00300
H359        H  0.85031015  0.30841126  0.02065645     0.14300
H360        H  0.93200183  0.27877281  0.02556796     0.14100
C361        C  0.03537881  0.29476966  0.90346198     0.85900
C362        C  0.01754119  0.31408551  0.88195813    -0.54300
C363        C  0.01305456  0.34248985  0.89102691     0.08800
C364        C  0.02790519  0.34973127  0.92051871     0.19800
C365        C  0.06422965  0.31212975  0.90714822    -0.55100
C366        C  0.06035914  0.34100175  0.91606607     0.08900
C367        C  0.01911964  0.29849971  0.93283812    -0.54600
C368        C  0.01549722  0.32685174  0.94196626     0.09500
H369        H  0.00841515  0.30673848  0.86131524     0.14000
H370        H  0.02433667  0.37273146  0.92811176    -0.00300
H371        H  0.08561838  0.30279988  0.90238408     0.14300
H372        H  0.01001017  0.27997217  0.94502560     0.14100
C373        C  0.76119526  0.44008690  0.94661644     0.85900
C374        C  0.77391354  0.43887269  0.91486810    -0.54300
C375        C  0.80342929  0.44566781  0.91377508     0.08800
C376        C  0.81697930  0.45319468  0.94409288     0.19800
C377        C  0.78138173  0.41910740  0.96394876    -0.55100
C378        C  0.81041327  0.42595159  0.96275962     0.08900
C379        C  0.76881728  0.47137607  0.95701932    -0.54600
C380        C  0.79784620  0.47797216  0.95679645     0.09500
H381        H  0.76171242  0.43196286  0.89557969     0.14000
H382        H  0.84061794  0.45903701  0.94321473    -0.00300
H383        H  0.77327510  0.39993392  0.97582895     0.14300
H384        H  0.75287396  0.48579615  0.96760512     0.14100
C385        C  0.91540706  0.43218827  0.77370867     0.85900
C386        C  0.93272358  0.40867329  0.79132934    -0.54300
C387        C  0.93662385  0.41536483  0.82037670     0.08800
C388        C  0.92376802  0.44529547  0.82931685     0.19800
C389        C  0.88675089  0.43638550  0.79131113    -0.55100
C390        C  0.89101984  0.44247849  0.82074711     0.08900
C391        C  0.93315091  0.46045134  0.77904625    -0.54600
C392        C  0.93783520  0.46728365  0.80771318     0.09500
H393        H  0.94367376  0.38980097  0.78164802     0.14000
H394        H  0.92775152  0.45134913  0.85269103    -0.00300
H395        H  0.86524738  0.43260210  0.78183525     0.14300
H396        H  0.94415840  0.47244402  0.76150308     0.14100
C397        C  0.76107937  0.57235661  0.08688262     0.85900
C398        C  0.78006807  0.55620728  0.10947291    -0.54300
C399        C  0.80907641  0.55437739  0.10263435     0.08800
C400        C  0.81705642  0.57126174  0.07436057     0.19800
C401        C  0.77508304  0.60355063  0.08571284    -0.55100
C402        C  0.80470644  0.60272471  0.07901198     0.08900
C403        C  0.76870491  0.55898232  0.05671353    -0.54600
C404        C  0.79769711  0.55792964  0.05049147     0.09500
H405        H  0.77068167  0.54578654  0.12885506     0.14000
H406        H  0.84054622  0.57029204  0.06823779    -0.00300
H407        H  0.76319001  0.62399234  0.08928332     0.14300
H408        H  0.75249574  0.54890769  0.04228554     0.14100
C409        C  0.92043529  0.73966992  0.07326353     0.85900
C410        C  0.89128524  0.72286786  0.07593745    -0.54300
C411        C  0.89372638  0.69313088  0.07054958     0.08800
C412        C  0.92524366  0.68287735  0.06372786     0.19800
C413        C  0.94146995  0.72355924  0.09441049    -0.55100
C414        C  0.94393661  0.69388270  0.08967371     0.08900
C415        C  0.93241463  0.73124964  0.04246841    -0.54600
C416        C  0.93525256  0.70165240  0.03758758     0.09500
H417        H  0.87060585  0.73355083  0.08111834     0.14000
H418        H  0.92734112  0.65880540  0.05943215    -0.00300
H419        H  0.95340677  0.73484111  0.11174544     0.14300
H420        H  0.94319956  0.74672376  0.02782332     0.14100
C421        C  0.06919396  0.57363526  0.78222535     0.85900
C422        C  0.06210827  0.60463231  0.79471014    -0.54300
C423        C  0.04967675  0.60416349  0.82246813     0.08800
C424        C  0.04477292  0.57239261  0.83463653     0.19800
C425        C  0.08851383  0.56028294  0.80656651    -0.55100
C426        C  0.07549230  0.55844726  0.83353627     0.08900
C427        C  0.03993266  0.55731177  0.78365050    -0.54600
C428        C  0.02725570  0.55602487  0.81066579     0.09500
H429        H  0.06829379  0.62507707  0.78395535     0.14000
H430        H  0.03474173  0.57123465  0.85689835    -0.00300
H431        H  0.11100125  0.55345911  0.80319324     0.14300
H432        H  0.03095315  0.54539047  0.76485958     0.14100
C433        C  0.07168639  0.73238171  0.94602296     0.85900
C434        C  0.09321412  0.70845658  0.95642710    -0.54300
C435        C  0.08235262  0.68039650  0.95544827     0.08800
C436        C  0.05128965  0.67831416  0.94284178     0.19800
C437        C  0.06420504  0.72237149  0.91417124    -0.55100
C438        C  0.05377742  0.69369952  0.91262334     0.08900
C439        C  0.04345371  0.72712095  0.96329370    -0.54600
C440        C  0.03295653  0.69920263  0.96193340     0.09500
H441        H  0.11469720  0.71338714  0.96545529     0.14000
H442        H  0.04274849  0.65531293  0.94215776    -0.00300
H443        H  0.06817027  0.73565257  0.89472575     0.14300
H444        H  0.03302144  0.74409075  0.97672495     0.14100
C445        C  0.56810868  0.07824937  0.21535302     0.85900
C446        C  0.58537054  0.05887000  0.19302624    -0.54300
C447        C  0.57256502  0.05619942  0.16602059     0.08800
C448        C  0.54354859  0.07309829  0.16326338     0.19800
C449        C  0.56434468  0.10789353  0.19917796    -0.55100
C450        C  0.55153717  0.10528036  0.17185258     0.08900
C451        C  0.53746729  0.06461586  0.21555048    -0.54600
C452        C  0.52466481  0.06131280  0.18875693     0.09500
H453        H  0.60610722  0.04815253  0.19710402     0.14000
H454        H  0.53321168  0.07082553  0.14123244    -0.00300
H455        H  0.57163543  0.12888836  0.20818522     0.14300
H456        H  0.52785853  0.05507882  0.23532197     0.14100
C457        C  0.55379162  0.24219624  0.05812283     0.85900
C458        C  0.54903311  0.22528604  0.08694651    -0.54300
C459        C  0.53824034  0.19713922  0.08327213     0.08800
C460        C  0.53236001  0.18882122  0.05050977     0.19800
C461        C  0.57320228  0.22135334  0.03926863    -0.55100
C462        C  0.56213551  0.19361671  0.03550307     0.08900
C463        C  0.52415159  0.24116139  0.04250106    -0.54600
C464        C  0.51287728  0.21368374  0.03781283     0.09500
H465        H  0.55583749  0.23393541  0.10820738     0.14000
H466        H  0.52371230  0.16615489  0.04704789    -0.00300
H467        H  0.59389664  0.22730922  0.02922108     0.14300
H468        H  0.51435866  0.26067292  0.03264772     0.14100
C469        C  0.41970667  0.93065506  0.22469097     0.85900
C470        C  0.39112309  0.93172626  0.20682215    -0.54300
C471        C  0.39510130  0.94037690  0.17807509     0.08800
C472        C  0.42713319  0.94810888  0.17017129     0.19800
C473        C  0.44055453  0.91098680  0.20599199    -0.55100
C474        C  0.44415988  0.92010858  0.17765465     0.08900
C475        C  0.43297864  0.96163828  0.22140599    -0.54600
C476        C  0.43711355  0.97073389  0.19315420     0.09500
H477        H  0.37001227  0.92512780  0.21570450     0.14000
H478        H  0.43048545  0.95587431  0.14722501    -0.00300
H479        H  0.45230494  0.89182473  0.21388958     0.14300
H480        H  0.44212189  0.97387256  0.23987613     0.14100
C481        C  0.40814962  0.25030792  0.90463769     0.85900
C482        C  0.42675466  0.22964640  0.88467591    -0.54300
C483        C  0.42983512  0.20161729  0.89528817     0.08800
C484        C  0.41432337  0.19642652  0.92469153     0.19800
C485        C  0.37893729  0.23378191  0.90878954    -0.55100
C486        C  0.38215907  0.20542879  0.91906398     0.08900
C487        C  0.42361789  0.24811813  0.93458030    -0.54600
C488        C  0.42738454  0.22019669  0.94488731     0.09500
H489        H  0.43836283  0.23634859  0.86498824     0.14000
H490        H  0.41730455  0.17363466  0.93321913    -0.00300
H491        H  0.35779874  0.24352202  0.90381161     0.14300
H492        H  0.43363946  0.26705968  0.94539330     0.14100
C493        C  0.26029675  0.07253854  0.92633800     0.85900
C494        C  0.27209280  0.10449672  0.92196679    -0.54300
C495        C  0.30154363  0.10732372  0.92826415     0.08800
C496        C  0.31630383  0.07812596  0.93730307     0.19800
C497        C  0.28017638  0.05353838  0.90669107    -0.55100
C498        C  0.30916697  0.05606594  0.91259435     0.08900
C499        C  0.26912624  0.06520281  0.95808337    -0.54600
C500        C  0.29836943  0.06767251  0.96388867     0.09500
H501        H  0.25880028  0.12323367  0.91559000     0.14000
H502        H  0.34015930  0.08019831  0.94146347    -0.00300
H503        H  0.27189969  0.03904388  0.88946190     0.14300
H504        H  0.25348352  0.05717198  0.97428609     0.14100
C505        C  0.26315240  0.94818327  0.05710825     0.85900
C506        C  0.28115957  0.92896462  0.03571444    -0.54300
C507        C  0.31012370  0.93541088  0.03474351     0.08800
C508        C  0.31936740  0.96010481  0.05602757     0.19800
C509        C  0.27876702  0.94358356  0.08709121    -0.55100
C510        C  0.30815242  0.94994912  0.08629799     0.08900
C511        C  0.27073506  0.98017148  0.04894564    -0.54600
C512        C  0.29997251  0.98667187  0.04859439     0.09500
H513        H  0.27173181  0.91117803  0.02263529     0.14000
H514        H  0.34319422  0.96504477  0.05535240    -0.00300
H515        H  0.26916681  0.93510421  0.10696894     0.14300
H516        H  0.25408136  0.99585931  0.04217919     0.14100
C517        C  0.40413767  0.97552198  0.78859863     0.85900
C518        C  0.40139345  0.94369804  0.80137117    -0.54300
C519        C  0.40718913  0.94226737  0.83125679     0.08800
C520        C  0.41458454  0.97248901  0.84528241     0.19800
C521        C  0.38326683  0.99391621  0.80783707    -0.55100
C522        C  0.38874622  0.99253743  0.83719355     0.08900
C523        C  0.43505940  0.98497906  0.79771035    -0.54600
C524        C  0.44060936  0.98409710  0.82719167     0.09500
H525        H  0.39640968  0.92421328  0.78836349     0.14000
H526        H  0.41876636  0.97156031  0.86935210    -0.00300
H527        H  0.36553435  0.00712978  0.79887601     0.14300
H528        H  0.45086779  0.99350024  0.78192362     0.14100
C529        C  0.39474425  0.80596435  0.94910005     0.85900
C530        C  0.37282269  0.82605066  0.96541258    -0.54300
C531        C  0.38083339  0.85495649  0.96693143     0.08800
C532        C  0.40949094  0.86204349  0.95084382     0.19800
C533        C  0.39709594  0.82063952  0.91820744    -0.55100
C534        C  0.40506723  0.85005727  0.91927232     0.08900
C535        C  0.42445115  0.81236995  0.96359736    -0.54600
C536        C  0.43216315  0.84145045  0.96471447     0.09500
H537        H  0.35289840  0.81792528  0.97575951     0.14000
H538        H  0.41550705  0.88580580  0.95211013    -0.00300
H539        H  0.39221886  0.80984384  0.89750469     0.14300
H540        H  0.43791812  0.79514742  0.97328985     0.14100
C541        C  0.53201127  0.79971417  0.08280602     0.85900
C542        C  0.56335340  0.81316479  0.08387840    -0.54300
C543        C  0.56373409  0.84315721  0.07833500     0.08800
C544        C  0.53328972  0.85671420  0.07239421     0.19800
C545        C  0.51493840  0.81861749  0.10496146    -0.55100
C546        C  0.51473613  0.84821251  0.09947532     0.08900
C547        C  0.52064553  0.80879545  0.05240320    -0.54600
C548        C  0.52096665  0.83826674  0.04690160     0.09500
H549        H  0.58330435  0.80103031  0.08807762     0.14000
H550        H  0.53360955  0.88069120  0.06737249    -0.00300
H551        H  0.50346242  0.80885393  0.12354138     0.14300
H552        H  0.51116879  0.79301744  0.03700740     0.14100
C553        C  0.69391793  0.96669952  0.07703708     0.85900
C554        C  0.67484750  0.98678030  0.09654609    -0.54300
C555        C  0.64581748  0.98679963  0.08964394     0.08800
C556        C  0.63791845  0.96517646  0.06471819     0.19800
C557        C  0.67999260  0.93577061  0.08089655    -0.55100
C558        C  0.65060236  0.93510570  0.07450149     0.08900
C559        C  0.68634921  0.97521292  0.04523604    -0.54600
C560        C  0.65716403  0.97501187  0.03873588     0.09500
H561        H  0.68382150  0.00019794  0.11425523     0.14000
H562        H  0.61417523  0.96456213  0.05938563    -0.00300
H563        H  0.69169075  0.91615418  0.08775157     0.14300
H564        H  0.70271592  0.98374569  0.03006096     0.14100
C565        C  0.52754942  0.10978947  0.78775267     0.85900
C566        C  0.50788566  0.12932156  0.80687802    -0.54300
C567        C  0.50850361  0.12302097  0.83599207     0.08800
C568        C  0.52985793  0.09828121  0.84420119     0.19800
C569        C  0.55849411  0.11441624  0.80129181    -0.55100
C570        C  0.55949994  0.10808025  0.83096544     0.08900
C571        C  0.52039815  0.07772728  0.79588020    -0.54600
C572        C  0.52096534  0.07165521  0.82524830     0.09500
H573        H  0.49478032  0.14731354  0.79813073     0.14000
H574        H  0.53049716  0.09356676  0.86820208    -0.00300
H575        H  0.57795629  0.12046104  0.78900876     0.14300
H576        H  0.51443259  0.06127089  0.77948843     0.14100
C577        C  0.69055011  0.10584420  0.95250156     0.85900
C578        C  0.67742577  0.10973390  0.92130343    -0.54300
C579        C  0.64803600  0.10290311  0.92006196     0.08800
C580        C  0.63468802  0.09319049  0.94988587     0.19800
C581        C  0.67098427  0.12554469  0.97193821    -0.55100
C582        C  0.64192121  0.11854625  0.97132869     0.08900
C583        C  0.68280701  0.07395992  0.96064434    -0.54600
C584        C  0.65383573  0.06726367  0.95990301     0.09500
H585        H  0.68969387  0.11667168  0.90205681     0.14000
H586        H  0.61100804  0.08761073  0.94893285    -0.00300
H587        H  0.67965724  0.14365773  0.98504680     0.14300
H588        H  0.69911636  0.05826139  0.96831159     0.14100
In589      In  0.48270966  0.13448261  0.60734854     1.36900
C590        C  0.45979201  0.18868390  0.60997112     0.77000
O591        O  0.52392075  0.11587137  0.58650954    -0.61500
O592        O  0.50099054  0.14900371  0.56337867    -0.52400
C593        C  0.50084415  0.12792652  0.66278600     0.69700
O594        O  0.51707227  0.13935040  0.64332798    -0.47200
C595        C  0.44186516  0.09243639  0.60141942     0.74400
O596        O  0.47937650  0.17973495  0.62730194    -0.59100
O597        O  0.46886587  0.08657942  0.60131572    -0.49200
O598        O  0.45268609  0.17002515  0.59052363    -0.55500
C599        C  0.52275878  0.13201861  0.56402570     0.84500
O600        O  0.47607919  0.11995670  0.65346151    -0.57400
O601        O  0.43604355  0.11956527  0.60249630    -0.60700
In602      In  0.58646540  0.13109138  0.49842216     1.36900
C603        C  0.58551792  0.18473590  0.47364463     0.77000
O604        O  0.60312170  0.10926350  0.45667656    -0.61500
O605        O  0.56448795  0.09199458  0.47548571    -0.52400
C606        C  0.63850411  0.12637928  0.52616607     0.69700
O607        O  0.62987849  0.14931694  0.51325177    -0.47200
C608        C  0.54508833  0.13141671  0.54066191     0.74400
O609        O  0.56849601  0.16425512  0.46539242    -0.59100
O610        O  0.54371629  0.14735417  0.51806629    -0.49200
O611        O  0.60194032  0.17768089  0.49474449    -0.55500
C612        C  0.58295607  0.09036211  0.45495203     0.84500
O613        O  0.62049885  0.10519516  0.52458501    -0.57400
O614        O  0.56737163  0.11516773  0.54167637    -0.60700
In615      In  0.58507610  0.02430127  0.39118258     1.36900
C616        C  0.58708937  0.04906044  0.33740083     0.77000
O617        O  0.54250016  0.00363788  0.37585692    -0.61500
O618        O  0.56386948  0.98434631  0.41230617    -0.52400
C619        C  0.63619873  0.99868533  0.40373889     0.69700
O620        O  0.62029006  0.98917831  0.38305915    -0.47200
C621        C  0.58194778  0.06782413  0.43141062     0.74400
O622        O  0.60374793  0.02832225  0.34526256    -0.59100
O623        O  0.56353436  0.04694623  0.43057703    -0.49200
O624        O  0.56928872  0.05705999  0.35717329    -0.55500
C625        C  0.54270415  0.98319895  0.39461656     0.84500
O626        O  0.62544172  0.02018257  0.41762428    -0.57400
O627        O  0.60054532  0.06723365  0.41089739    -0.60700
In628      In  0.37609920  0.03001694  0.60958762     1.36900
C629        C  0.32140449  0.05326219  0.60866525     0.77000
O630        O  0.39202633  0.07659780  0.60394354    -0.61500
O631        O  0.42390409  0.04246056  0.60386007    -0.52400
C632        C  0.38660573  0.00849857  0.66408254     0.69700
O633        O  0.39226466  0.03464361  0.65626488    -0.47200
C634        C  0.37902369  0.98855645  0.56718316     0.74400
O635        O  0.33695615  0.05019727  0.58594432    -0.59100
O636        O  0.38648045  0.01498218  0.56277139    -0.49200
O637        O  0.33382772  0.04437801  0.63166629    -0.55500
C638        C  0.41876847  0.06983392  0.60249401     0.84500
O639        O  0.37618928  0.99286606  0.64355103    -0.57400
O640        O  0.37060196  0.98337015  0.59308141    -0.60700
In641      In  0.37541685  0.92259184  0.50353997     1.36900
C642        C  0.32039588  0.92864492  0.48312073     0.77000
O643        O  0.37549526  0.93867871  0.55034566    -0.61500
O644        O  0.38219492  0.97068887  0.51702939    -0.52400
C645        C  0.38700609  0.87082954  0.52915979     0.69700
O646        O  0.36258809  0.87654533  0.51752991    -0.47200
C647        C  0.41611993  0.92143331  0.46113067     0.74400
O648        O  0.32716653  0.92594247  0.50979144    -0.59100
O649        O  0.41327947  0.94312829  0.47849846    -0.49200
O650        O  0.34213725  0.92816147  0.46599553    -0.55500
C651        C  0.37925050  0.96550551  0.54420766     0.84500
O652        O  0.40499849  0.89196589  0.52834959    -0.57400
O653        O  0.39780084  0.90094746  0.46499435    -0.60700
In654      In  0.48040529  0.91606256  0.39613726     1.36900
C655        C  0.51435974  0.86737087  0.39826679     0.77000
O656        O  0.50087020  0.95694735  0.37610552    -0.61500
O657        O  0.51975759  0.94004755  0.41504650    -0.52400
C658        C  0.44868616  0.91462450  0.34630668     0.69700
O659        O  0.46129408  0.89238096  0.35701660    -0.47200
C660        C  0.43902401  0.91971779  0.43831652     0.74400
O661        O  0.50833581  0.88077079  0.37472733    -0.59100
O662        O  0.45665133  0.94040758  0.43299128    -0.49200
O663        O  0.50383889  0.87958174  0.42101170    -0.55500
C664        C  0.52048718  0.95959873  0.39537826     0.84500
O665        O  0.45143015  0.93765985  0.36183422    -0.57400
O666        O  0.44271903  0.89716752  0.42247832    -0.60700
C667        C  0.02772976  0.23759858  0.58572659     0.85900
C668        C  0.00698810  0.21966693  0.60562089    -0.54300
C669        C  0.00719194  0.19014772  0.60037966     0.08800
C670        C  0.02871982  0.18058327  0.57627239     0.19800
C671        C  0.05823619  0.22334498  0.59134378    -0.55100
C672        C  0.05861197  0.19313532  0.58643318     0.08900
C673        C  0.02041287  0.22833749  0.55411374    -0.54600
C674        C  0.02051321  0.19870421  0.54907592     0.09500
H675        H  0.99347528  0.22954290  0.62275950     0.14000
H676        H  0.02844028  0.15640780  0.57196679    -0.00300
H677        H  0.07712705  0.23531690  0.59951428     0.14300
H678        H  0.01334569  0.24408728  0.53755739     0.14100
C679        C  0.19703120  0.07739792  0.59865953     0.85900
C680        C  0.17909823  0.10639813  0.60091015    -0.54300
C681        C  0.14943882  0.10294927  0.59615118     0.08800
C682        C  0.14081724  0.07069204  0.58889506     0.19800
C683        C  0.18157121  0.05580296  0.61997419    -0.55100
C684        C  0.15243354  0.05249085  0.61491178     0.08900
C685        C  0.18934324  0.06436806  0.56837202    -0.54600
C686        C  0.16014323  0.06166104  0.56270509     0.09500
H687        H  0.18903884  0.12754911  0.60622333     0.14000
H688        H  0.11728324  0.06738114  0.58424945    -0.00300
H689        H  0.19238215  0.04321935  0.63708153     0.14300
H690        H  0.20575262  0.05654924  0.55289567     0.14100
C691        C  0.19631218  0.94836913  0.45598957     0.85900
C692        C  0.17769508  0.92844186  0.47588865    -0.54300
C693        C  0.14878022  0.93563949  0.47734458     0.08800
C694        C  0.14043606  0.96120049  0.45682544     0.19800
C695        C  0.18147370  0.94512306  0.42552068    -0.55100
C696        C  0.15202644  0.95206348  0.42609120     0.08900
C697        C  0.18917011  0.98018746  0.46531070    -0.54600
C698        C  0.16009495  0.98687144  0.46648944     0.09500
H699        H  0.18702316  0.91004166  0.48797515     0.14000
H700        H  0.11676778  0.96678648  0.45734467    -0.00300
H701        H  0.19261794  0.93809390  0.40558700     0.14300
H702        H  0.20593476  0.99520632  0.47340577     0.14100
C703        C  0.89941705  0.23297294  0.45067368     0.85900
C704        C  0.89736279  0.21772911  0.42025124    -0.54300
C705        C  0.90339217  0.18784349  0.42133008     0.08800
C706        C  0.91078578  0.17637132  0.45271601     0.19800
C707        C  0.87821887  0.21505045  0.46959945    -0.55100
C708        C  0.88476546  0.18589218  0.47239971     0.08900
C709        C  0.93039894  0.22522673  0.46132236    -0.54600
C710        C  0.93628032  0.19582173  0.46306051     0.09500
H711        H  0.89246857  0.22911700  0.39986926     0.14000
H712        H  0.91606832  0.15247467  0.45353178    -0.00300
H713        H  0.85938263  0.22527980  0.48006023     0.14300
H714        H  0.94582072  0.24190239  0.46893409     0.14100
C715        C  0.89476887  0.06651829  0.28752278     0.85900
C716        C  0.87188939  0.05299512  0.30801504    -0.54300
C717        C  0.87968539  0.05148179  0.33691462     0.08800
C718        C  0.90897843  0.06710444  0.34336539     0.19800
C719        C  0.89805116  0.09823010  0.30047866    -0.55100
C720        C  0.90538576  0.09834270  0.33010593     0.08900
C721        C  0.92397672  0.05165701  0.29467952    -0.54600
C722        C  0.93143936  0.05199076  0.32351845     0.09500
H723        H  0.85056032  0.04594096  0.30018159     0.14000
H724        H  0.91572473  0.06666666  0.36675643    -0.00300
H725        H  0.89401977  0.11835058  0.28822718     0.14300
H726        H  0.93723535  0.04043097  0.27814816     0.14100
C727        C  0.03708402  0.93070025  0.29038525     0.85900
C728        C  0.06627830  0.93335101  0.30707064    -0.54300
C729        C  0.06300956  0.93922765  0.33656748     0.08800
C730        C  0.03086524  0.94211385  0.34674927     0.19800
C731        C  0.01954085  0.90715055  0.30768614    -0.55100
C732        C  0.01592578  0.91300991  0.33709861     0.08900
C733        C  0.02036500  0.95931445  0.29745585    -0.54600
C734        C  0.01762990  0.96556265  0.32661336     0.09500
H735        H  0.08753266  0.93099290  0.29653658     0.14000
H736        H  0.02820798  0.94793867  0.37033506    -0.00300
H737        H  0.00942172  0.88807442  0.29746423     0.14300
H738        H  0.00980988  0.97287708  0.28087893     0.14100
C739        C  0.91449245  0.79399477  0.42364851     0.85900
C740        C  0.88552000  0.81109964  0.42196688    -0.54300
C741        C  0.88834164  0.84070200  0.42796086     0.08800
C742        C  0.92014587  0.85048606  0.43498050     0.19800
C743        C  0.93562511  0.81072996  0.40272463    -0.55100
C744        C  0.93812338  0.84028224  0.40832758     0.08900
C745        C  0.92678660  0.80126918  0.45444114    -0.54600
C746        C  0.93047038  0.83058513  0.46029212     0.09500
H747        H  0.86492417  0.80088705  0.41566004     0.14000
H748        H  0.92247224  0.87443264  0.43997486    -0.00300
H749        H  0.94829612  0.80013798  0.38542765     0.14300
H750        H  0.93738284  0.78493207  0.46825890     0.14100
C751        C  0.75697960  0.96435921  0.42972896     0.85900
C752        C  0.77460846  0.98530870  0.40989060    -0.54300
C753        C  0.80387221  0.98509494  0.41436260     0.08800
C754        C  0.81351740  0.96401232  0.43854318     0.19800
C755        C  0.77125398  0.93373749  0.42363772    -0.55100
C756        C  0.80127130  0.93375106  0.42831432     0.08900
C757        C  0.76617093  0.97045477  0.46152689    -0.54600
C758        C  0.79554871  0.97262312  0.46590504     0.09500
H759        H  0.76456888  0.99893110  0.39300951     0.14000
H760        H  0.83747018  0.96416187  0.44277483    -0.00300
H761        H  0.75943150  0.91428268  0.41629228     0.14300
H762        H  0.75058524  0.97627876  0.47868522     0.14100
C763        C  0.06928011  0.80421410  0.55587554     0.85900
C764        C  0.08919972  0.82887349  0.54365924    -0.54300
C765        C  0.07643242  0.85607018  0.54268276     0.08800
C766        C  0.04552544  0.85694250  0.55574669     0.19800
C767        C  0.06164377  0.81582581  0.58698928    -0.55100
C768        C  0.04961461  0.84382527  0.58703349     0.08900
C769        C  0.04058328  0.80635749  0.53883321    -0.54600
C770        C  0.02847063  0.83369597  0.53800664     0.09500
H771        H  0.11159491  0.82530840  0.53637184     0.14000
H772        H  0.03580016  0.87940074  0.55502062    -0.00300
H773        H  0.06752073  0.80438250  0.60709368     0.14300
H774        H  0.03147139  0.78786140  0.52650371     0.14100
C775        C  0.05466772  0.95750349  0.72740947     0.85900
C776        C  0.05674473  0.92804590  0.71031163    -0.54300
C777        C  0.05262938  0.93095715  0.68048246     0.08800
C778        C  0.04755357  0.96296930  0.67036381     0.19800
C779        C  0.07687440  0.97812232  0.71241080    -0.55100
C780        C  0.07355816  0.98056482  0.68278171     0.08900
C781        C  0.02492332  0.97078555  0.71807102    -0.54600
C782        C  0.02106241  0.97358923  0.68837653     0.09500
H783        H  0.06000959  0.90683567  0.72092565     0.14000
H784        H  0.04483437  0.96522598  0.64616855    -0.00300
H785        H  0.09381492  0.99017499  0.72418533     0.14300
H786        H  0.00892515  0.97979092  0.73328780     0.14100
C787        C  0.75855628  0.10646772  0.56292973     0.85900
C788        C  0.77226321  0.10364707  0.59384999    -0.54300
C789        C  0.80071765  0.09364389  0.59345928     0.08800
C790        C  0.81273159  0.08698129  0.56239388     0.19800
C791        C  0.78056292  0.12622340  0.54585912    -0.55100
C792        C  0.80872497  0.11586435  0.54560131     0.08900
C793        C  0.76272317  0.07602123  0.54851602    -0.54600
C794        C  0.79074744  0.06591655  0.54812270     0.09500
H795        H  0.76087389  0.10972535  0.61398898     0.14000
H796        H  0.83565647  0.07874019  0.56209111    -0.00300
H797        H  0.77493840  0.14600399  0.53379134     0.14300
H798        H  0.74534079  0.06466328  0.53665086     0.14100
C799        C  0.92440653  0.09563390  0.72320393     0.85900
C800        C  0.94072613  0.11786405  0.70387703    -0.54300
C801        C  0.94064662  0.11152894  0.67460850     0.08800
C802        C  0.92269988  0.08377022  0.66671272     0.19800
C803        C  0.89295245  0.09580142  0.71031790    -0.55100
C804        C  0.89223053  0.08946566  0.68054612     0.08900
C805        C  0.93642088  0.06521894  0.71471670    -0.54600
C806        C  0.93570469  0.05884435  0.68546604     0.09500
H807        H  0.95196036  0.13707164  0.71286129     0.14000
H808        H  0.92241446  0.07866070  0.64276515    -0.00300
H809        H  0.87330346  0.10058647  0.72290000     0.14300
H810        H  0.94603710  0.05026003  0.73071294     0.14100
In811      In  0.08873488  0.52372244  0.60370484     1.36900
C812        C  0.14364398  0.50423888  0.59446220     0.77000
O813        O  0.04979761  0.50078541  0.58215581    -0.61500
O814        O  0.06303644  0.48587777  0.62394641    -0.52400
C815        C  0.08909622  0.54746190  0.65804786     0.69700
O816        O  0.10501580  0.52620235  0.64999064    -0.47200
C817        C  0.08262516  0.56337915  0.56051564     0.74400
O818        O  0.13708424  0.53064445  0.60044974    -0.59100
O819        O  0.09500335  0.53872544  0.55689848    -0.49200
O820        O  0.12177288  0.48716632  0.59315083    -0.55500
C821        C  0.04543916  0.48296355  0.60290068     0.84500
O822        O  0.07307047  0.55757714  0.63782690    -0.57400
O823        O  0.07248734  0.56760057  0.58609181    -0.60700
In824      In  0.08672088  0.62857844  0.49675076     1.36900
C825        C  0.14154975  0.62165586  0.47636527     0.77000
O826        O  0.06948470  0.61066470  0.54011121    -0.61500
O827        O  0.09480308  0.58231750  0.51286268    -0.52400
C828        C  0.08794340  0.68171532  0.52310780     0.69700
O829        O  0.10444583  0.67432684  0.50205482    -0.47200
C830        C  0.04460575  0.62676111  0.45489398     0.74400
O831        O  0.11999225  0.62430968  0.45921318    -0.59100
O832        O  0.05329005  0.60411914  0.46833753    -0.49200
O833        O  0.13467704  0.62267091  0.50324285    -0.55500
C834        C  0.08178359  0.58585607  0.53712557     0.84500
O835        O  0.07054518  0.66160417  0.53122483    -0.57400
O836        O  0.05682861  0.65023724  0.46320622    -0.60700
In837      In  0.97911958  0.62558933  0.39095545     1.36900
C838        C  0.00805084  0.62604935  0.33952460     0.77000
O839        O  0.01360759  0.64894201  0.41833565    -0.61500
O840        O  0.00939835  0.60270401  0.42336103    -0.52400
C841        C  0.94446787  0.67274574  0.40049031     0.69700
O842        O  0.95344210  0.66533126  0.37528667    -0.47200
C843        C  0.94004862  0.58133487  0.38917800     0.74400
O844        O  0.99298326  0.64740316  0.34896483    -0.59100
O845        O  0.95058542  0.59289569  0.36638177    -0.49200
O846        O  0.00982020  0.60478661  0.35742852    -0.55500
C847        C  0.02205695  0.62606491  0.43158697     0.84500
O848        O  0.95220411  0.65522649  0.42054855    -0.57400
O849        O  0.94941026  0.59223142  0.41287717    -0.60700
In850      In  0.97944022  0.41933936  0.60247075     1.36900
C851        C  0.99955375  0.36382661  0.59684840     0.77000
O852        O  0.93622298  0.43336750  0.58361903    -0.61500
O853        O  0.96734141  0.41427517  0.55441463    -0.52400
C854        C  0.94868082  0.42075186  0.65301700     0.69700
O855        O  0.96350346  0.39890022  0.64448853    -0.47200
C856        C  0.02193840  0.46058540  0.60265961     0.74400
O857        O  0.01645081  0.38528012  0.60218734    -0.59100
O858        O  0.01728433  0.44345308  0.62396270    -0.49200
O859        O  0.97313560  0.37126498  0.59398716    -0.55500
C860        C  0.94168751  0.42402649  0.55800736     0.84500
O861        O  0.95006905  0.44258984  0.63583676    -0.57400
O862        O  0.00486105  0.45683085  0.58120175    -0.60700
In863      In  0.87537119  0.41400387  0.49672417     1.36900
C864        C  0.87954841  0.35816505  0.47762084     0.77000
O865        O  0.85309081  0.44017802  0.46112124    -0.61500
O866        O  0.89893965  0.44535699  0.46631587    -0.52400
C867        C  0.82552004  0.42094679  0.52714332     0.69700
O868        O  0.83180759  0.39722201  0.51383069    -0.47200
C869        C  0.91903266  0.42245741  0.53513319     0.74400
O870        O  0.87508932  0.37933063  0.46023429    -0.59100
O871        O  0.92317316  0.41103536  0.51010464    -0.49200
O872        O  0.88112819  0.36589901  0.50428298    -0.55500
C873        C  0.87620665  0.45261337  0.45244577     0.84500
O874        O  0.84470185  0.44080548  0.52446616    -0.57400
O875        O  0.89313620  0.43067653  0.53985702    -0.60700
In876      In  0.87657261  0.51599769  0.38732427     1.36900
C877        C  0.91825219  0.55753957  0.38827095     0.77000
O878        O  0.89959438  0.48695308  0.42005042    -0.61500
O879        O  0.85357606  0.48214272  0.41528429    -0.52400
C880        C  0.82997279  0.55092206  0.39568451     0.69700
O881        O  0.84583908  0.54152375  0.41628333    -0.47200
C882        C  0.87767392  0.48274129  0.33836686     0.74400
O883        O  0.90745857  0.54650720  0.41121585    -0.59100
O884        O  0.89905843  0.48424918  0.35593006    -0.49200
O885        O  0.90840287  0.54685410  0.36463530    -0.55500
C886        C  0.87649978  0.47427004  0.42853172     0.84500
O887        O  0.83816419  0.54260235  0.37043540    -0.57400
O888        O  0.85583255  0.49785481  0.34631802    -0.60700
C889        C  0.83608965  0.06555211  0.62388098    -0.26900
C890        C  0.82011565  0.09165356  0.61966871    -0.15000
C891        C  0.82620431  0.11652553  0.63760160     0.35600
C892        C  0.84844304  0.11473778  0.65912824    -0.26400
C893        C  0.86524356  0.08895671  0.66228012    -0.15600
C894        C  0.85859594  0.06407629  0.64482193     0.36700
N895        N  0.87509097  0.03735703  0.64795205    -0.89900
H896        H  0.83177602  0.04646941  0.61003722     0.17800
H897        H  0.85398044  0.13408135  0.67212075     0.17800
N898        N  0.81107843  0.14393384  0.63273205    -0.88900
H899        H  0.88465865  0.03234437  0.62759035     0.35200
H900        H  0.86052572  0.02032664  0.65326042     0.40300
H901        H  0.81681517  0.15142902  0.61171587     0.39900
H902        H  0.81824525  0.16006431  0.64761315     0.34800
C903        C  0.97512533  0.03492042  0.65670000    -0.26900
C904        C  0.95008326  0.03166558  0.67433629    -0.15000
C905        C  0.94507859  0.00434471  0.68862416     0.35600
C906        C  0.96761265  0.98347201  0.68960799    -0.26400
C907        C  0.99494250  0.98922857  0.67656311    -0.15600
C908        C  0.99773853  0.01384037  0.65774883     0.36700
N909        N  0.02437003  0.01902718  0.64188954    -0.89900
H910        H  0.97885675  0.05549799  0.64510086     0.17800
H911        H  0.96467822  0.96385623  0.70296523     0.17800
N912        N  0.91828730  0.99812888  0.70415788    -0.88900
H913        H  0.01926100  0.02021503  0.61948211     0.35200
H914        H  0.03269198  0.03957466  0.64833889     0.40300
H915        H  0.90280943  0.01479384  0.70088202     0.39900
H916        H  0.92302306  0.99752259  0.72667626     0.34800
C917        C  0.07416421  0.75002406  0.57129958    -0.26900
C918        C  0.08146755  0.77286697  0.55144086    -0.15000
C919        C  0.09303357  0.76451075  0.52345056     0.35600
C920        C  0.09716706  0.73478272  0.51633817    -0.26400
C921        C  0.08795774  0.71227949  0.53515793    -0.15600
C922        C  0.07704876  0.71992680  0.56326738     0.36700
N923        N  0.06836392  0.69732043  0.58349231    -0.89900
H924        H  0.06422608  0.75527510  0.59232453     0.17800
H925        H  0.10542651  0.72936271  0.49456706     0.17800
N926        N  0.09853438  0.78589832  0.50087890    -0.88900
H927        H  0.04629611  0.70062254  0.58880721     0.35200
H928        H  0.08061992  0.69994977  0.60275804     0.40300
H929        H  0.08563472  0.78061134  0.48259219     0.39900
H930        H  0.12053842  0.78426431  0.49460941     0.34800
C931        C  0.07188040  0.86374242  0.63355527    -0.26900
C932        C  0.04804709  0.86290546  0.61388123    -0.15000
C933        C  0.02479620  0.88296692  0.61806493     0.35600
C934        C  0.02639417  0.90431187  0.64052218    -0.26400
C935        C  0.05066959  0.90585816  0.65939453    -0.15600
C936        C  0.07333713  0.88502980  0.65621023     0.36700
N937        N  0.09855579  0.88642345  0.67488183    -0.89900
H938        H  0.09020967  0.84884767  0.63044174     0.17800
H939        H  0.00864390  0.92004042  0.64300924     0.17800
N940        N  0.99943620  0.88172399  0.59958271    -0.88900
H941        H  0.11703443  0.88943237  0.66156506     0.35200
H942        H  0.10061045  0.86605906  0.68550600     0.40300
H943        H  0.99703824  0.90227673  0.58938934     0.39900
H944        H  0.98111045  0.87826333  0.61299966     0.34800
C945        C  0.79911568  0.02537724  0.47654572    -0.26900
C946        C  0.80451208  0.99649059  0.48617339    -0.15000
C947        C  0.80955798  0.99114987  0.51630785     0.35600
C948        C  0.80782648  0.01490924  0.53643054    -0.26400
C949        C  0.79927984  0.04301680  0.52676838    -0.15600
C950        C  0.79505440  0.04826838  0.49656088     0.36700
N951        N  0.78434165  0.07626330  0.48638297    -0.89900
H952        H  0.79432619  0.02960348  0.45364631     0.17800
H953        H  0.81071296  0.01103750  0.55979258     0.17800
N954        N  0.81490725  0.96157956  0.52640990    -0.88900
H955        H  0.76382737  0.07277488  0.47676929     0.35200
H956        H  0.79827399  0.08406593  0.46985044     0.40300
H957        H  0.79598268  0.94913574  0.52249011     0.39900
H958        H  0.81817843  0.96148874  0.54920317     0.34800
C959        C  0.91358952  0.73982214  0.44011753    -0.26900
C960        C  0.91250885  0.76058197  0.41699798    -0.15000
C961        C  0.91343629  0.74942995  0.38783569     0.35600
C962        C  0.92192113  0.71991872  0.38268037    -0.26400
C963        C  0.92839003  0.70083727  0.40619433    -0.15600
C964        C  0.92204779  0.71043159  0.43507556     0.36700
N965        N  0.92542666  0.69090193  0.45961500    -0.89900
H966        H  0.90923934  0.74647657  0.46260330     0.17800
H967        H  0.92486920  0.71243910  0.36016711     0.17800
N968        N  0.90666282  0.76814060  0.36337437    -0.88900
H969        H  0.90535405  0.68966526  0.47067594     0.35200
H970        H  0.94079672  0.70017674  0.47400839     0.40300
H971        H  0.88907308  0.75869035  0.35200916     0.39900
H972        H  0.92471258  0.76835057  0.34914287     0.34800
C973        C  0.86943160  0.88884880  0.41053608    -0.26900
C974        C  0.86393481  0.86238849  0.42541059    -0.15000
C975        C  0.83614041  0.85800326  0.43844529     0.35600
C976        C  0.81496020  0.88072736  0.43751249    -0.26400
C977        C  0.82123037  0.90792899  0.42399945    -0.15600
C978        C  0.84854573  0.91144183  0.40964258     0.36700
N979        N  0.85547301  0.93805182  0.39415989    -0.89900
H980        H  0.89037877  0.89229552  0.39977361     0.17800
H981        H  0.79423816  0.87769000  0.44880577     0.17800
N982        N  0.82988295  0.83123756  0.45398123    -0.88900
H983        H  0.87432899  0.94724190  0.40352472     0.35200
H984        H  0.86036902  0.93247971  0.37232191     0.40300
H985        H  0.82469351  0.83673337  0.47576849     0.39900
H986        H  0.81138128  0.82155324  0.44441672     0.34800
C987        C  0.98334340  0.83130240  0.46880179    -0.26900
C988        C  0.95547207  0.83865196  0.47943094    -0.15000
C989        C  0.95228901  0.84840672  0.50890316     0.35600
C990        C  0.97709005  0.84903073  0.52733421    -0.26400
C991        C  0.00468185  0.84005538  0.51684989    -0.15600
C992        C  0.00790669  0.83224109  0.48675578     0.36700
N993        N  0.03553614  0.82422134  0.47368284    -0.89900
H994        H  0.98590307  0.82325113  0.44642106     0.17800
H995        H  0.97440743  0.85470012  0.55037947     0.17800
N996        N  0.92426202  0.85603464  0.52125333    -0.88900
H997        H  0.03509205  0.80153411  0.46933303     0.35200
H998        H  0.05320894  0.82852554  0.48758622     0.40300
H999        H  0.90773126  0.85475589  0.50543419     0.39900
H1000       H  0.92531257  0.87817849  0.52785448     0.34800
C1001       C  0.97090804  0.88178489  0.34364299    -0.26900
C1002       C  0.99604660  0.89485159  0.35623163    -0.15000
C1003       C  0.00119922  0.89084559  0.38668921     0.35600
C1004       C  0.98104112  0.87446789  0.40363177    -0.26400
C1005       C  0.95705360  0.86017627  0.39054308    -0.15600
C1006       C  0.95175109  0.86414933  0.36031717     0.36700
N1007       N  0.92669846  0.85047197  0.34674633    -0.89900
H1008       H  0.96582789  0.88552933  0.32068267     0.17800
H1009       H  0.98468886  0.87213533  0.42698718     0.17800
N1010       N  0.02721562  0.90251057  0.40023643    -0.88900
H1011       H  0.92590972  0.85544929  0.32428527     0.35200
H1012       H  0.90792198  0.85969356  0.35627408     0.40300
H1013       H  0.04520039  0.89183565  0.39069339     0.39900
H1014       H  0.02766197  0.89753757  0.42272038     0.34800
C1015       C  0.84600386  0.00962893  0.34744508    -0.26900
C1016       C  0.86187136  0.03405867  0.35828066    -0.15000
C1017       C  0.85952145  0.04127132  0.38848292     0.35600
C1018       C  0.84159027  0.02403692  0.40686570    -0.26400
C1019       C  0.82421806  0.00130092  0.39515549    -0.15600
C1020       C  0.82626167  0.99431979  0.36496195     0.36700
N1021       N  0.80854379  0.97191909  0.35129789    -0.89900
H1022       H  0.84813932  0.00261917  0.32480361     0.17800
H1023       H  0.84036255  0.02933916  0.43008820     0.17800
N1024       N  0.87403363  0.06665596  0.40044207    -0.88900
H1025       H  0.78666879  0.97855351  0.35186413     0.35200
H1026       H  0.81048964  0.95214858  0.36293466     0.40300
H1027       H  0.88758978  0.05962395  0.41758675     0.39900
H1028       H  0.85815113  0.08073287  0.40937902     0.34800
C1029       C  0.95133845  0.00870949  0.34933740    -0.26900
C1030       C  0.95680576  0.03498459  0.33399404    -0.15000
C1031       C  0.98523495  0.04074226  0.32304999     0.35600
C1032       C  0.00658697  0.01879855  0.32474043    -0.26400
C1033       C  0.99982339  0.99093958  0.33636219    -0.15600
C1034       C  0.97261184  0.98638862  0.35026651     0.36700
N1035       N  0.96545220  0.95820398  0.36260846    -0.89900
H1036       H  0.92954160  0.00418611  0.35775632     0.17800
H1037       H  0.02765094  0.02245607  0.31426424     0.17800
N1038       N  0.99254090  0.06796540  0.30871093    -0.88900
H1039       H  0.94720330  0.94980241  0.35146408     0.35200
H1040       H  0.95959195  0.96140959  0.38466123     0.40300
H1041       H  0.98799732  0.08535326  0.32317555     0.39900
H1042       H  0.97958895  0.07045389  0.28995614     0.34800
C1043       C  0.88527184  0.28561470  0.43319463    -0.26900
C1044       C  0.89354498  0.26597110  0.45568610    -0.15000
C1045       C  0.89627530  0.27730424  0.48481280     0.35600
C1046       C  0.89137916  0.30703667  0.49069249    -0.26400
C1047       C  0.88346540  0.32677942  0.46853459    -0.15600
C1048       C  0.88019756  0.31583155  0.43932616     0.36700
N1049       N  0.87165891  0.33462788  0.41553968    -0.89900
H1050       H  0.88267094  0.27772919  0.41084416     0.17800
H1051       H  0.89403359  0.31462105  0.51321240     0.17800
N1052       N  0.90423617  0.25854795  0.50892811    -0.88900
H1053       H  0.88736398  0.35129319  0.41321072     0.35200
H1054       H  0.85147898  0.34423385  0.42078669     0.40300
H1055       H  0.88800129  0.26033842  0.52511412     0.39900
H1056       H  0.92378239  0.26652406  0.51791272     0.34800
C1057       C  0.86695994  0.13605172  0.48922700    -0.26900
C1058       C  0.86906347  0.16665493  0.49404126    -0.15000
C1059       C  0.85622678  0.17850783  0.52002802     0.35600
C1060       C  0.83698197  0.16133277  0.53668040    -0.26400
C1061       C  0.83255090  0.13157172  0.52999384    -0.15600
C1062       C  0.84985361  0.11822065  0.50786001     0.36700
N1063       N  0.85033076  0.08681993  0.50416555    -0.89900
H1064       H  0.87804882  0.12582011  0.47074831     0.17800
H1065       H  0.82559882  0.17128217  0.55521044     0.17800
N1066       N  0.86334098  0.20755384  0.53036675    -0.88900
H1067       H  0.87160132  0.07961111  0.50868706     0.35200
H1068       H  0.84637603  0.08201286  0.48199846     0.40300
H1069       H  0.87257681  0.20566421  0.55134275     0.39900
H1070       H  0.84389696  0.21962133  0.53236999     0.34800
C1071       C  0.92955161  0.15006938  0.39133257    -0.26900
C1072       C  0.90484869  0.16811948  0.39496621    -0.15000
C1073       C  0.88150436  0.16540958  0.37478173     0.35600
C1074       C  0.88283471  0.14399204  0.35210647    -0.26400
C1075       C  0.90708251  0.12502263  0.34941335    -0.15600
C1076       C  0.93086738  0.12873694  0.36885481     0.36700
N1077       N  0.95638285  0.11055505  0.36606975    -0.89900
H1078       H  0.94782201  0.15214954  0.40642684     0.17800
H1079       H  0.86414247  0.14102951  0.33770668     0.17800
N1080       N  0.85574345  0.18311952  0.37825823    -0.88900
H1081       H  0.95934673  0.09927617  0.38591447     0.35200
H1082       H  0.97447242  0.12439413  0.36291040     0.40300
H1083       H  0.85254043  0.19487503  0.35873420     0.39900
H1084       H  0.83786248  0.16894314  0.38113409     0.34800
C1085       C  0.09938082  0.91415934  0.48764485    -0.26900
C1086       C  0.12798108  0.92010969  0.49726426    -0.15000
C1087       C  0.13690363  0.90974653  0.52526476     0.35600
C1088       C  0.11898889  0.88980671  0.54054798    -0.26400
C1089       C  0.09159835  0.88164129  0.52943607    -0.15600
C1090       C  0.08093005  0.89540867  0.50383364     0.36700
N1091       N  0.05198960  0.88935157  0.49337466    -0.89900
H1092       H  0.09176025  0.92269672  0.46675371     0.17800
H1093       H  0.12662951  0.88007202  0.56092758     0.17800
N1094       N  0.16410462  0.91937498  0.53800845    -0.88900
H1095       H  0.05367456  0.88148923  0.47175508     0.35200
H1096       H  0.04051970  0.90932720  0.49272466     0.40300
H1097       H  0.16249759  0.94215395  0.54161890     0.39900
H1098       H  0.16732046  0.90965878  0.55863029     0.34800
C1099       C  0.09123729  0.97001574  0.37203184    -0.26900
C1100       C  0.08795641  0.94305028  0.35713208    -0.15000
C1101       C  0.10719489  0.91960097  0.36348709     0.35600
C1102       C  0.12928796  0.92338451  0.38479153    -0.26400
C1103       C  0.13206245  0.95014367  0.40030028    -0.15600
C1104       C  0.11312110  0.97376386  0.39343886     0.36700
N1105       N  0.11601431  0.00161349  0.40826976    -0.89900
H1106       H  0.07648581  0.98814964  0.36727972     0.17800
H1107       H  0.14329607  0.90488738  0.39030149     0.17800
N1108       N  0.10329916  0.89145424  0.34951724    -0.88900
H1109       H  0.11977296  0.01789505  0.39240431     0.35200
H1110       H  0.09611507  0.00634998  0.41871545     0.40300
H1111       H  0.12285610  0.88594615  0.33880942     0.39900
H1112       H  0.09950556  0.87574228  0.36594211     0.34800
C1113       C  0.11695361  0.04612549  0.65540569    -0.26900
C1114       C  0.13375622  0.03321738  0.63306221    -0.15000
C1115       C  0.13235365  0.00245383  0.62823920     0.35600
C1116       C  0.11127240  0.98574273  0.64359650    -0.26400
C1117       C  0.09334455  0.99909262  0.66495921    -0.15600
C1118       C  0.09669939  0.02937327  0.67135463     0.36700
N1119       N  0.07943942  0.04317062  0.69393231    -0.89900
H1120       H  0.11979835  0.06930623  0.66067664     0.17800
H1121       H  0.10977121  0.96208747  0.64000499     0.17800
N1122       N  0.15368726  0.98810580  0.60971359    -0.88900
H1123       H  0.09372512  0.05213198  0.70957731     0.35200
H1124       H  0.06780368  0.06060987  0.68445875     0.40300
H1125       H  0.15272606  0.99706256  0.58863206     0.39900
H1126       H  0.14898158  0.96554144  0.60773350     0.34800
C1127       C  0.16543986  0.05749839  0.50856438    -0.26900
C1128       C  0.14995240  0.04929648  0.53406310    -0.15000
C1129       C  0.12951672  0.02591734  0.53214837     0.35600
C1130       C  0.12979274  0.00749457  0.50717780    -0.26400
C1131       C  0.14994016  0.01243095  0.48429053    -0.15600
C1132       C  0.16553496  0.03930136  0.48356130     0.36700
N1133       N  0.18341909  0.04655005  0.45848844    -0.89900
H1134       H  0.17966645  0.07669501  0.50916262     0.17800
H1135       H  0.11659872  0.98757939  0.50737782     0.17800
N1136       N  0.10976258  0.01959900  0.55585627    -0.88900
H1137       H  0.19397219  0.06683237  0.46170164     0.35200
H1138       H  0.16944242  0.04918047  0.44047091     0.40300
H1139       H  0.11193232  0.99732411  0.56147065     0.39900
H1140       H  0.08844948  0.02231033  0.54792262     0.34800
C1141       C  0.04414339  0.29152318  0.59654568    -0.26900
C1142       C  0.02206811  0.27087633  0.58950993    -0.15000
C1143       C  0.99325535  0.28163620  0.58462929     0.35600
C1144       C  0.98708682  0.31168182  0.58716242    -0.26400
C1145       C  0.00879511  0.33230935  0.59433468    -0.15600
C1146       C  0.03778606  0.32215369  0.59904783     0.36700
N1147       N  0.06067345  0.34279241  0.60614688    -0.89900
H1148       H  0.06634901  0.28406505  0.59997121     0.17800
H1149       H  0.96475814  0.31881661  0.58328816     0.17800
N1150       N  0.96986245  0.26194716  0.57672178    -0.88900
H1151       H  0.08080913  0.33193428  0.60784999     0.35200
H1152       H  0.05609712  0.35144382  0.62704068     0.40300
H1153       H  0.96146784  0.26865062  0.55640308     0.39900
H1154       H  0.95323192  0.26394567  0.59247939     0.34800
C1155       C  0.98633094  0.13832419  0.66191319    -0.26900
C1156       C  0.95785193  0.12977308  0.65372887    -0.15000
C1157       C  0.94555916  0.14119832  0.62773526     0.35600
C1158       C  0.96207883  0.16064373  0.61017609    -0.26400
C1159       C  0.99041095  0.16921328  0.61864198    -0.15600
C1160       C  0.00236468  0.15860203  0.64510052     0.36700
N1161       N  0.03049474  0.16889991  0.65505145    -0.89900
H1162       H  0.99577332  0.12979349  0.68205740     0.17800
H1163       H  0.95245119  0.16971889  0.59037659     0.17800
N1164       N  0.91595077  0.13427813  0.61989191    -0.88900
H1165       H  0.03629900  0.15863482  0.67479472     0.35200
H1166       H  0.02860726  0.19147735  0.65969449     0.40300
H1167       H  0.91608694  0.12480905  0.59885101     0.39900
H1168       H  0.90414573  0.15404540  0.61884925     0.34800
C1169       C  0.98237547  0.16806503  0.52558495    -0.26900
C1170       C  0.00678716  0.18653269  0.52208191    -0.15000
C1171       C  0.01183577  0.19984473  0.49437525     0.35600
C1172       C  0.98957190  0.19936227  0.47323804    -0.26400
C1173       C  0.96267725  0.18543093  0.47905130    -0.15600
C1174       C  0.96006786  0.16762444  0.50437863     0.36700
N1175       N  0.93373376  0.15148481  0.51020392    -0.89900
H1176       H  0.97877745  0.15681590  0.54628553     0.17800
H1177       H  0.99231344  0.21211380  0.45323792     0.17800
N1178       N  0.03853682  0.21537400  0.48776819    -0.88900
H1179       H  0.92490556  0.15911522  0.53010220     0.35200
H1180       H  0.93924512  0.12922616  0.51284642     0.40300
H1181       H  0.05385459  0.21291700  0.50466104     0.39900
H1182       H  0.03361409  0.23787298  0.48606693     0.34800
C1183       C  0.07726926  0.14509612  0.60452737    -0.26900
C1184       C  0.08378306  0.17269491  0.59226179    -0.15000
C1185       C  0.11305471  0.17857231  0.58381940     0.35600
C1186       C  0.13452829  0.15605510  0.58647254    -0.26400
C1187       C  0.12734286  0.12770602  0.59723370    -0.15600
C1188       C  0.09835157  0.12293466  0.60727912     0.36700
N1189       N  0.08977609  0.09571911  0.62070782    -0.89900
H1190       H  0.05522498  0.14015935  0.61178074     0.17800
H1191       H  0.15660564  0.16027761  0.57877581     0.17800
N1192       N  0.12069490  0.20675897  0.57150493    -0.88900
H1193       H  0.07267251  0.08657973  0.60835268     0.35200
H1194       H  0.08153564  0.10051044  0.64170507     0.40300
H1195       H  0.10951172  0.20887744  0.55154293     0.39900
H1196       H  0.14306004  0.20754904  0.56652024     0.34800
C1197       C  0.24868780  0.93355742  0.43872291    -0.26900
C1198       C  0.22900702  0.94219167  0.46115046    -0.15000
C1199       C  0.24016504  0.94577195  0.49015956     0.35600
C1200       C  0.26969069  0.94120208  0.49603486    -0.26400
C1201       C  0.28938560  0.93283850  0.47397651    -0.15600
C1202       C  0.27882029  0.92868153  0.44491513     0.36700
N1203       N  0.29847274  0.91930654  0.42196126    -0.89900
H1204       H  0.24081706  0.93050774  0.41648341     0.17800
H1205       H  0.27722727  0.94454106  0.51843941     0.17800
N1206       N  0.22143071  0.95434445  0.51412982    -0.88900
H1207       H  0.28734338  0.91748193  0.40191929     0.35200
H1208       H  0.30570896  0.89805281  0.42724203     0.40300
H1209       H  0.22938440  0.97412471  0.52303936     0.39900
H1210       H  0.22269570  0.93809697  0.53041353     0.34800
C1211       C  0.24292692  0.07239527  0.63063364    -0.26900
C1212       C  0.23052518  0.08038047  0.60335010    -0.15000
C1213       C  0.25038387  0.08639460  0.57978074     0.35600
C1214       C  0.27985310  0.07760251  0.58206202    -0.26400
C1215       C  0.29100669  0.06541995  0.60814970    -0.15600
C1216       C  0.27267313  0.06481933  0.63319367     0.36700
N1217       N  0.28381578  0.05569243  0.66120060    -0.89900
H1218       H  0.22940422  0.07100513  0.65016866     0.17800
H1219       H  0.29416061  0.08045983  0.56319655     0.17800
N1220       N  0.24184641  0.10205169  0.55365148    -0.88900
H1221       H  0.27164269  0.03743744  0.66825920     0.35200
H1222       H  0.28043462  0.07292069  0.67623808     0.40300
H1223       H  0.22060407  0.11041618  0.55531117     0.39900
H1224       H  0.24288516  0.08750573  0.53573812     0.34800
C1225       C  0.68471137  0.00770272  0.42434884    -0.26900
C1226       C  0.66584766  0.98763756  0.41087115    -0.15000
C1227       C  0.67587300  0.95877330  0.40491656     0.35600
C1228       C  0.70494046  0.95072922  0.41224582    -0.26400
C1229       C  0.72434103  0.97129736  0.42519911    -0.15600
C1230       C  0.71328433  0.00041535  0.43141227     0.36700
N1231       N  0.73021244  0.02405383  0.44405427    -0.89900
H1232       H  0.67741411  0.03007523  0.42894544     0.17800
H1233       H  0.71231139  0.92862418  0.40704067     0.17800
N1234       N  0.65662412  0.93754035  0.39177293    -0.88900
H1235       H  0.74812835  0.02948652  0.43099769     0.35200
H1236       H  0.73625445  0.01950360  0.46570120     0.40300
H1237       H  0.65491148  0.91953529  0.40606867     0.39900
H1238       H  0.66627955  0.93011177  0.37220717     0.34800
C1239       C  0.67492443  0.09909912  0.55727328    -0.26900
C1240       C  0.66756787  0.12444013  0.54113674    -0.15000
C1241       C  0.68852382  0.14733312  0.53899783     0.35600
C1242       C  0.71723132  0.14283200  0.54923243    -0.26400
C1243       C  0.72592474  0.11567174  0.56163606    -0.15600
C1244       C  0.70349416  0.09493785  0.56839851     0.36700
N1245       N  0.71027683  0.06874928  0.58489685    -0.89900
H1246       H  0.65855094  0.08207171  0.56059508     0.17800
H1247       H  0.73262414  0.16073700  0.54658137     0.17800
N1248       N  0.68113607  0.17500508  0.52565765    -0.88900
H1249       H  0.69172589  0.05536192  0.58714352     0.35200
H1250       H  0.71612774  0.07543612  0.60614940     0.40300
H1251       H  0.69517734  0.17839923  0.50775109     0.39900
H1252       H  0.68492560  0.19180126  0.54107016     0.34800
C1253       C  0.48720840  0.11449858  0.71345571    -0.26900
C1254       C  0.50902642  0.12426220  0.69418066    -0.15000
C1255       C  0.53720809  0.13020202  0.70543141     0.35600
C1256       C  0.54312972  0.12554570  0.73557296    -0.26400
C1257       C  0.52123742  0.11527984  0.75502120    -0.15600
C1258       C  0.49251979  0.11022770  0.74324789     0.36700
N1259       N  0.46768626  0.10097602  0.76048520    -0.89900
H1260       H  0.46525374  0.11022685  0.70538805     0.17800
H1261       H  0.56497042  0.13018005  0.74340835     0.17800
N1262       N  0.55994303  0.14082885  0.68643327    -0.88900
H1263       H  0.47100618  0.08030882  0.76987533     0.35200
H1264       H  0.46238140  0.11662559  0.77650702     0.40300
H1265       H  0.57739970  0.12590743  0.68729959     0.39900
H1266       H  0.56726264  0.16111799  0.69472705     0.34800
C1267       C  0.62619272  0.12937244  0.87661653    -0.26900
C1268       C  0.63007146  0.10319669  0.89282261    -0.15000
C1269       C  0.61372600  0.07794279  0.88517997     0.35600
C1270       C  0.59216741  0.07972404  0.86343292    -0.26400
C1271       C  0.58661035  0.10631919  0.84877722    -0.15600
C1272       C  0.60448911  0.13107268  0.85453801     0.36700
N1273       N  0.59961424  0.15824912  0.83923657    -0.89900
H1274       H  0.63876453  0.14891633  0.88224102     0.17800
H1275       H  0.57888793  0.06039205  0.85874029     0.17800
N1276       N  0.61861993  0.05045792  0.89995190    -0.88900
H1277       H  0.59494096  0.17463946  0.85483633     0.35200
H1278       H  0.61910562  0.16405135  0.82857021     0.40300
H1279       H  0.62425616  0.03460892  0.88411927     0.39900
H1280       H  0.59894539  0.04390802  0.90982187     0.34800
C1281       C  0.62682018  0.01547870  0.01794826    -0.26900
C1282       C  0.64622787  0.99189395  0.01299783    -0.15000
C1283       C  0.66033298  0.98955860  0.98546856     0.35600
C1284       C  0.65870679  0.01306297  0.96551455    -0.26400
C1285       C  0.64349749  0.03905059  0.97288150    -0.15600
C1286       C  0.62546345  0.03920773  0.99809522     0.36700
N1287       N  0.60805370  0.06455959  0.00516874    -0.89900
H1288       H  0.61529233  0.01730791  0.03875760     0.17800
H1289       H  0.67202501  0.01235670  0.94571758     0.17800
N1290       N  0.67809778  0.96432854  0.97871955    -0.88900
H1291       H  0.61457798  0.07246042  0.02580247     0.71200
H1292       H  0.58623851  0.05770904  0.00690634     0.40300
H1293       H  0.67007554  0.95475564  0.95935010     0.39900
H1294       H  0.69944961  0.97165393  0.97457975     0.34800
C1295       C  0.60342236  0.87184930  0.10333625    -0.26900
C1296       C  0.59045430  0.86182588  0.07712261    -0.15000
C1297       C  0.59954206  0.87402337  0.05012467     0.35600
C1298       C  0.62021647  0.89701599  0.04970524    -0.26400
C1299       C  0.63226007  0.90800605  0.07591091    -0.15600
C1300       C  0.62423073  0.89480249  0.10298094     0.36700
N1301       N  0.63559384  0.90537969  0.13045290    -0.89900
H1302       H  0.59613197  0.86298390  0.12426354     0.17800
H1303       H  0.62625250  0.90694040  0.02884504     0.17800
N1304       N  0.58713648  0.86358859  0.02308505    -0.88900
H1305       H  0.63063080  0.92786667  0.13239543     0.35200
H1306       H  0.65836597  0.90302888  0.13013448     0.40300
H1307       H  0.60422260  0.85608826  0.00963349     0.39900
H1308       H  0.57710256  0.88143431  0.01257310     0.34800
C1309       C  0.48538961  0.83652879  0.97314804    -0.26900
C1310       C  0.45913617  0.85093175  0.98021893    -0.15000
C1311       C  0.45795832  0.86903264  0.00551906     0.35600
C1312       C  0.48132070  0.86855232  0.02565744    -0.26400
C1313       C  0.50549277  0.85001412  0.02079473    -0.15600
C1314       C  0.50873255  0.83606880  0.99299537     0.36700
N1315       N  0.53455807  0.81966219  0.98508166    -0.89900
H1316       H  0.48686604  0.82350612  0.95310655     0.17800
H1317       H  0.47884062  0.87979283  0.04664524     0.17800
N1318       N  0.43218465  0.88575770  0.01221327    -0.88900
H1319       H  0.52881408  0.79731936  0.98371684     0.35200
H1320       H  0.55078732  0.82165493  0.00113520     0.40300
H1321       H  0.42468598  0.87928773  0.03297637     0.39900
H1322       H  0.43820670  0.90801397  0.01368625     0.34800
C1323       C  0.39140646  0.96096447  0.73460280    -0.26900
C1324       C  0.39926158  0.98247132  0.75568553    -0.15000
C1325       C  0.40306464  0.01204467  0.74579554     0.35600
C1326       C  0.39923530  0.01931524  0.71611633    -0.26400
C1327       C  0.39119398  0.99811588  0.69508964    -0.15600
C1328       C  0.38726581  0.96844684  0.70465286     0.36700
N1329       N  0.37922613  0.94535617  0.68459903    -0.89900
H1330       H  0.38829010  0.93823115  0.74114787     0.17800
H1331       H  0.40235934  0.04214936  0.70964664     0.17800
N1332       N  0.41101908  0.03512653  0.76601022    -0.88900
H1333       H  0.39499961  0.94423296  0.66789927     0.35200
H1334       H  0.35892836  0.95053918  0.67533865     0.40300
H1335       H  0.43072312  0.04446901  0.75881676     0.39900
H1336       H  0.39485362  0.05147219  0.76534190     0.34800
C1337       C  0.43204847  0.91117817  0.86876569    -0.26900
C1338       C  0.40829601  0.91478102  0.84946578    -0.15000
C1339       C  0.38486860  0.89446819  0.85093876     0.35600
C1340       C  0.38494740  0.87200054  0.87252731    -0.26400
C1341       C  0.40789609  0.86978807  0.89306471    -0.15600
C1342       C  0.43203288  0.88907515  0.89040267     0.36700
N1343       N  0.45653505  0.88652344  0.90992090    -0.89900
H1344       H  0.45045385  0.92630825  0.86769551     0.17800
H1345       H  0.36617250  0.85743983  0.87436781     0.17800
N1346       N  0.36015501  0.89767999  0.83186597    -0.88900
H1347       H  0.45906372  0.90665801  0.92101544     0.35200
H1348       H  0.47533384  0.88293812  0.89720690     0.40300
H1349       H  0.34151224  0.90066975  0.84496816     0.39900
H1350       H  0.35761295  0.87794483  0.82009518     0.34800
C1351       C  0.49373583  0.99400408  0.82260953    -0.26900
C1352       C  0.46782143  0.99783774  0.83892695    -0.15000
C1353       C  0.46641555  0.02119062  0.85950810     0.35600
C1354       C  0.48737477  0.04392848  0.85820239    -0.26400
C1355       C  0.50945174  0.04324045  0.83667927    -0.15600
C1356       C  0.51462291  0.01668683  0.82114095     0.36700
N1357       N  0.53945496  0.01415391  0.80175608    -0.89900
H1358       H  0.49577788  0.97510022  0.80801536     0.17800
H1359       H  0.48409883  0.06363619  0.87141854     0.17800
N1360       N  0.44258470  0.02331005  0.87991986    -0.88900
H1361       H  0.53967550  0.99347440  0.79139878     0.35200
H1362       H  0.55831496  0.01531126  0.81474277     0.40300
H1363       H  0.43250396  0.04378359  0.87707616     0.39900
H1364       H  0.45136703  0.02308611  0.90116924     0.34800
C1365       C  0.34245894  0.89200448  0.03105346    -0.26900
C1366       C  0.33054850  0.91698926  0.01750247    -0.15000
C1367       C  0.33511372  0.92152468  0.98704720     0.35600
C1368       C  0.35275730  0.90182262  0.97111420    -0.26400
C1369       C  0.36439824  0.87669084  0.98469768    -0.15600
C1370       C  0.35911423  0.87169362  0.01487464     0.36700
N1371       N  0.37032022  0.84579719  0.02904469    -0.89900
H1372       H  0.33778182  0.88755612  0.05402631     0.17800
H1373       H  0.35623169  0.90534912  0.94774951     0.17800
N1374       N  0.32103872  0.94506229  0.97155873    -0.88900
H1375       H  0.38288981  0.85246375  0.04710817     0.35200
H1376       H  0.35252556  0.83369112  0.03712122     0.40300
H1377       H  0.32736738  0.96502761  0.98110494     0.39900
H1378       H  0.29838289  0.94281514  0.97412837     0.34800
C1379       C  0.35116373  0.05493460  0.87822211    -0.26900
C1380       C  0.33138061  0.03927554  0.89584655    -0.15000
C1381       C  0.33116275  0.00802904  0.89507052     0.35600
C1382       C  0.35162145  0.99307702  0.87721730    -0.26400
C1383       C  0.37071039  0.00885129  0.85882862    -0.15600
C1384       C  0.37004551  0.03998704  0.85891311     0.36700
N1385       N  0.38767454  0.05644644  0.83857750    -0.89900
H1386       H  0.35074044  0.07890031  0.87818214     0.17800
H1387       H  0.35155880  0.96912297  0.87631586     0.17800
N1388       N  0.30936922  0.99175217  0.91126202    -0.88900
H1389       H  0.40010045  0.07177695  0.85047703     0.35200
H1390       H  0.37357706  0.06840256  0.82495571     0.40300
H1391       H  0.31220472  0.99611857  0.93367123     0.39900
H1392       H  0.31228285  0.96900515  0.90834695     0.34800
C1393       C  0.29402994  0.06204441  0.01795672    -0.26900
C1394       C  0.31050435  0.05712303  0.99224027    -0.15000
C1395       C  0.33288940  0.03567745  0.99281166     0.35600
C1396       C  0.33319237  0.01491372  0.01569414    -0.26400
C1397       C  0.31094014  0.01523856  0.03701917    -0.15600
C1398       C  0.29420842  0.04113338  0.04056530     0.36700
N1399       N  0.27566970  0.04492622  0.06581041    -0.89900
H1400       H  0.27829792  0.07996558  0.01884275     0.17800
H1401       H  0.34830984  0.99654950  0.01437680     0.17800
N1402       N  0.35353484  0.03314895  0.96916215    -0.88900
H1403       H  0.25411292  0.04759165  0.05852114     0.35200
H1404       H  0.28190992  0.06448668  0.07641121     0.40300
H1405       H  0.35227605  0.01178364  0.96047008     0.39900
H1406       H  0.37451157  0.03577884  0.97799827     0.34800
C1407       C  0.47970463  0.18828361  0.87782372    -0.26900
C1408       C  0.45042458  0.17995168  0.88234917    -0.15000
C1409       C  0.44134614  0.15115217  0.87488087     0.35600
C1410       C  0.46142096  0.13152425  0.86184133    -0.26400
C1411       C  0.49048623  0.14025063  0.85669384    -0.15600
C1412       C  0.49983512  0.16852531  0.86538085     0.36700
N1413       N  0.52955139  0.17752322  0.86052183    -0.89900
H1414       H  0.48686426  0.21038415  0.88347318     0.17800
H1415       H  0.45394427  0.11003203  0.85434272     0.17800
N1416       N  0.41145388  0.14238658  0.87903153    -0.88900
H1417       H  0.52939754  0.19626421  0.84710383     0.35200
H1418       H  0.53854164  0.18350430  0.88086046     0.40300
H1419       H  0.41118788  0.12370647  0.89253393     0.39900
H1420       H  0.40287512  0.13634306  0.85853238     0.34800
C1421       C  0.35739418  0.16635642  0.94829042    -0.26900
C1422       C  0.35772714  0.18389404  0.92291436    -0.15000
C1423       C  0.33695512  0.17821569  0.90054946     0.35600
C1424       C  0.31738645  0.15422242  0.90330683    -0.26400
C1425       C  0.31835801  0.13562202  0.92798285    -0.15600
C1426       C  0.33785067  0.14260149  0.95114103     0.36700
N1427       N  0.33793106  0.12558300  0.97770892    -0.89900
H1428       H  0.37285060  0.17075588  0.96587447     0.17800
H1429       H  0.30254120  0.14917892  0.88537714     0.17800
N1430       N  0.33676270  0.19560758  0.87426109    -0.88900
H1431       H  0.33353244  0.13982378  0.99535225     0.35200
H1432       H  0.35896719  0.11693105  0.98062224     0.40300
H1433       H  0.31588257  0.20481090  0.87201353     0.39900
H1434       H  0.34038897  0.18150261  0.85633002     0.34800
C1435       C  0.42790692  0.89461397  0.26748308    -0.26900
C1436       C  0.41692971  0.92185638  0.25738357    -0.15000
C1437       C  0.40845896  0.94285435  0.27896866     0.35600
C1438       C  0.41747266  0.93931887  0.30839824    -0.26400
C1439       C  0.43362315  0.91440026  0.31715638    -0.15600
C1440       C  0.43682822  0.89085735  0.29671357     0.36700
N1441       N  0.45029880  0.86333571  0.30432695    -0.89900
H1442       H  0.43106985  0.87627567  0.25253897     0.17800
H1443       H  0.41298362  0.95684860  0.32408969     0.17800
N1444       N  0.39210734  0.96857424  0.27079972    -0.88900
H1445       H  0.43882765  0.85406403  0.32198893     0.35200
H1446       H  0.47204861  0.86720236  0.31039969     0.40300
H1447       H  0.40413299  0.98728907  0.27693258     0.39900
H1448       H  0.37261212  0.96862922  0.28293337     0.34800
C1449       C  0.48702367  0.91493737  0.14354698    -0.26900
C1450       C  0.46142329  0.90304127  0.15595434    -0.15000
C1451       C  0.45273213  0.87424338  0.14843472     0.35600
C1452       C  0.46948183  0.85781666  0.12855799    -0.26400
C1453       C  0.49621124  0.86865094  0.11740461    -0.15600
C1454       C  0.50501721  0.89762537  0.12505642     0.36700
N1455       N  0.53273169  0.90901417  0.11552740    -0.89900
H1456       H  0.49376928  0.93717499  0.14928962     0.17800
H1457       H  0.46165485  0.83605603  0.12238884     0.17800
N1458       N  0.42688613  0.86150215  0.16116725    -0.88900
H1459       H  0.54507041  0.91428117  0.13421302     0.35200
H1460       H  0.52897142  0.92855610  0.10389864     0.40300
H1461       H  0.41301708  0.85477166  0.14412092     0.39900
H1462       H  0.43312574  0.84260334  0.17276527     0.34800
C1463       C  0.34412738  0.95325142  0.16207910    -0.26900
C1464       C  0.37145056  0.94040921  0.15562845    -0.15000
C1465       C  0.37654701  0.92902378  0.12710628     0.35600
C1466       C  0.35527882  0.93204869  0.10539469    -0.26400
C1467       C  0.32845941  0.94569896  0.11132434    -0.15600
C1468       C  0.32254081  0.95621285  0.14006712     0.36700
N1469       N  0.29530054  0.97081190  0.14649126    -0.89900
H1470       H  0.34010388  0.96206453  0.18393620     0.17800
H1471       H  0.36003186  0.92367177  0.08356386     0.17800
N1472       N  0.40315120  0.91390995  0.11991603    -0.88900
H1473       H  0.29449126  0.97727046  0.16861889     0.35200
H1474       H  0.29461581  0.99018958  0.13401390     0.40300
H1475       H  0.39767508  0.89290043  0.11199008     0.39900
H1476       H  0.41343018  0.92531224  0.10275330     0.34800
C1477       C  0.59269005  0.14189225  0.97689822    -0.26900
C1478       C  0.61967905  0.13430903  0.98954867    -0.15000
C1479       C  0.62551271  0.14286909  0.01899914     0.35600
C1480       C  0.60546508  0.16103583  0.03399692    -0.26400
C1481       C  0.57947612  0.17028695  0.02055080    -0.15600
C1482       C  0.57265269  0.15981440  0.99203457     0.36700
N1483       N  0.54648165  0.16847869  0.97717854    -0.89900
H1484       H  0.58778323  0.13527918  0.95447435     0.17800
H1485       H  0.61046497  0.16872984  0.05607212     0.17800
N1486       N  0.65183722  0.13336864  0.03350509    -0.88900
H1487       H  0.54701004  0.19140092  0.97490372     0.35200
H1488       H  0.52851926  0.16253608  0.99019504     0.40300
H1489       H  0.65103462  0.11035416  0.03524429     0.39900
H1490       H  0.65275475  0.14167394  0.05500983     0.34800
C1491       C  0.44320912  0.19892052  0.99331552    -0.26900
C1492       C  0.45015404  0.21411025  0.96729265    -0.15000
C1493       C  0.47857973  0.22567032  0.96356766     0.35600
C1494       C  0.49873035  0.22375403  0.98641171    -0.26400
C1495       C  0.49162897  0.21008999  0.01320585    -0.15600
C1496       C  0.46371034  0.19707505  0.01659032     0.36700
N1497       N  0.45575082  0.18348185  0.04395991    -0.89900
H1498       H  0.42135718  0.18994884  0.99606758     0.17800
H1499       H  0.51999192  0.23406459  0.98348890     0.17800
N1500       N  0.48699482  0.23999803  0.93672636    -0.88900
H1501       H  0.43448712  0.17493299  0.04281745     0.35200
H1502       H  0.45540903  0.20006617  0.06005137     0.40300
H1503       H  0.50560740  0.22928624  0.92852756     0.39900
H1504       H  0.49290447  0.26177859  0.94173974     0.34800
C1505       C  0.56572537  0.08265532  0.29945429    -0.26900
C1506       C  0.58742154  0.06214827  0.30723835    -0.15000
C1507       C  0.60794686  0.05337934  0.28559083     0.35600
C1508       C  0.60408787  0.06235738  0.25615973    -0.26400
C1509       C  0.57958553  0.07923801  0.24739834    -0.15600
C1510       C  0.56184738  0.09164402  0.27001626     0.36700
N1511       N  0.53812681  0.11116288  0.26266096    -0.89900
H1512       H  0.55065727  0.09059334  0.31616076     0.17800
H1513       H  0.61985927  0.05466278  0.24027794     0.17800
N1514       N  0.63202579  0.03440421  0.29320724    -0.88900
H1515       H  0.52589321  0.11657381  0.28141800     0.35200
H1516       H  0.54734979  0.13091766  0.25520627     0.40300
H1517       H  0.64575704  0.04630421  0.30734738     0.39900
H1518       H  0.64455433  0.02913967  0.27460756     0.34800
C1519       C  0.61285057  0.05268758  0.12969546    -0.26900
C1520       C  0.58744238  0.04014242  0.14166334    -0.15000
C1521       C  0.57946705  0.01110669  0.13316333     0.35600
C1522       C  0.59782206  0.99472022  0.11455467    -0.26400
C1523       C  0.62447640  0.00644790  0.10472166    -0.15600
C1524       C  0.63130138  0.03622328  0.11119473     0.36700
N1525       N  0.65708317  0.04976170  0.09924663    -0.89900
H1526       H  0.61909304  0.07498720  0.13574507     0.17800
H1527       H  0.59218591  0.97197472  0.10951721     0.17800
N1528       N  0.55411958  0.99681427  0.14478947    -0.88900
H1529       H  0.66996921  0.05723537  0.11678520     0.35200
H1530       H  0.65064799  0.06815717  0.08696776     0.40300
H1531       H  0.53586295  0.00992882  0.14026660     0.39900
H1532       H  0.55703974  0.99510841  0.16748866     0.34800
C1533       C  0.50883973  0.01026259  0.19721115    -0.26900
C1534       C  0.50216381  0.03805456  0.18549553    -0.15000
C1535       C  0.47404669  0.04335339  0.17388697     0.35600
C1536       C  0.45293915  0.02046600  0.17472638    -0.26400
C1537       C  0.45993111  0.99293281  0.18711821    -0.15600
C1538       C  0.48841761  0.98762738  0.19746230     0.36700
N1539       N  0.49635254  0.95944587  0.20941890    -0.89900
H1540       H  0.53004928  0.00624797  0.20710384     0.17800
H1541       H  0.43082185  0.02447802  0.16709279     0.17800
N1542       N  0.46668875  0.07211072  0.16282090    -0.88900
H1543       H  0.50282810  0.96258936  0.23129198     0.35200
H1544       H  0.51439701  0.95144163  0.19763317     0.40300
H1545       H  0.46790541  0.08702794  0.18042942     0.39900
H1546       H  0.44498839  0.07241028  0.15548361     0.34800
C1547       C  0.52044503  0.13480849  0.13746877    -0.26900
C1548       C  0.54771238  0.13050107  0.15107013    -0.15000
C1549       C  0.57137377  0.14909215  0.14328750     0.35600
C1550       C  0.56740515  0.17092416  0.12158826    -0.26400
C1551       C  0.54032321  0.17473343  0.10736619    -0.15600
C1552       C  0.51645754  0.15678970  0.11605714     0.36700
N1553       N  0.48779093  0.16076332  0.10407157    -0.89900
H1554       H  0.50205406  0.12093012  0.14352831     0.17800
H1555       H  0.58585486  0.18455130  0.11510717     0.17800
N1556       N  0.59957747  0.14522942  0.15677694    -0.88900
H1557       H  0.48864850  0.15607383  0.08159690     0.35200
H1558       H  0.48171007  0.18285358  0.10703436     0.40300
H1559       H  0.61454783  0.16076392  0.14874183     0.39900
H1560       H  0.60745905  0.12446858  0.15050296     0.34800
C1561       C  0.07777429  0.59200748  0.72942297    -0.26900
C1562       C  0.08161308  0.56967331  0.75082668    -0.15000
C1563       C  0.09035713  0.54103864  0.74048149     0.35600
C1564       C  0.09373326  0.53562976  0.71048900    -0.26400
C1565       C  0.08807374  0.55719551  0.68936739    -0.15600
C1566       C  0.08069150  0.58602116  0.69901267     0.36700
N1567       N  0.07585309  0.60955955  0.67858043    -0.89900
H1568       H  0.07055684  0.61382776  0.73587872     0.17800
H1569       H  0.09952887  0.51341068  0.70358231     0.17800
N1570       N  0.09457285  0.51598203  0.75929004    -0.88900
H1571       H  0.05807904  0.60400556  0.66518676     0.35200
H1572       H  0.09452161  0.61169016  0.66535927     0.40300
H1573       H  0.07631167  0.51251001  0.77266376     0.39900
H1574       H  0.11362284  0.51859205  0.77166137     0.34800
C1575       C  0.07123342  0.65097610  0.84270664    -0.26900
C1576       C  0.04752506  0.63108775  0.84156857    -0.15000
C1577       C  0.02379116  0.63547815  0.86100930     0.35600
C1578       C  0.02513179  0.65784830  0.88253791    -0.26400
C1579       C  0.04977405  0.67627062  0.88504138    -0.15600
C1580       C  0.07259730  0.67334078  0.86427469     0.36700
N1581       N  0.09820020  0.69154631  0.86630885    -0.89900
H1582       H  0.08980559  0.64797159  0.82810289     0.17800
H1583       H  0.00732976  0.65997724  0.89825197     0.17800
N1584       N  0.99836585  0.61708212  0.85923133    -0.88900
H1585       H  0.10076219  0.70258475  0.84626180     0.35200
H1586       H  0.11635413  0.67779629  0.86924566     0.40300
H1587       H  0.98022599  0.63065148  0.85547435     0.39900
H1588       H  0.99544501  0.60680182  0.87963103     0.34800
C1589       C  0.98717970  0.69131300  0.02974139    -0.26900
C1590       C  0.95898742  0.69189090  0.01783154    -0.15000
C1591       C  0.95526529  0.69012685  0.98713658     0.35600
C1592       C  0.98008437  0.68853697  0.96875022    -0.26400
C1593       C  0.00829567  0.69055677  0.98085622    -0.15600
C1594       C  0.01174345  0.69200370  0.01163373     0.36700
N1595       N  0.03989888  0.69741928  0.02452217    -0.89900
H1596       H  0.99031581  0.69384793  0.05315317     0.17800
H1597       H  0.97731626  0.68865083  0.94503825     0.17800
N1598       N  0.92654767  0.69189239  0.97464775    -0.88900
H1599       H  0.04362348  0.68119753  0.04043349     0.35200
H1600       H  0.03899653  0.71776163  0.03548692     0.40300
H1601       H  0.92321680  0.67301984  0.96172668     0.39900
H1602       H  0.92593615  0.71029673  0.96078002     0.34800
C1603       C  0.84238763  0.63009946  0.05071165    -0.26900
C1604       C  0.82416380  0.62882719  0.07562385    -0.15000
C1605       C  0.82771365  0.64994817  0.09827023     0.35600
C1606       C  0.84957267  0.67185255  0.09552251    -0.26400
C1607       C  0.86854862  0.67227527  0.07110918    -0.15600
C1608       C  0.86452981  0.65143639  0.04832934     0.36700
N1609       N  0.88288990  0.65183797  0.02268190    -0.89900
H1610       H  0.83989898  0.61389341  0.03323996     0.17800
H1611       H  0.85285697  0.68764978  0.11320452     0.17800
N1612       N  0.81024203  0.64813310  0.12457365    -0.88900
H1613       H  0.86953586  0.65444726  0.00418524     0.35200
H1614       H  0.89329657  0.63131571  0.02097100     0.40300
H1615       H  0.81571359  0.66518684  0.13916536     0.39900
H1616       H  0.81558399  0.62834496  0.13513326     0.34800
C1617       C  0.92082503  0.39835306  0.72862533    -0.26900
C1618       C  0.91254653  0.42594432  0.74043089    -0.15000
C1619       C  0.90784986  0.44933666  0.72028458     0.35600
C1620       C  0.91823372  0.44688386  0.69113188    -0.26400
C1621       C  0.93212026  0.42094020  0.68131907    -0.15600
C1622       C  0.93119416  0.39580156  0.69963125     0.36700
N1623       N  0.94179048  0.36778819  0.68938584    -0.89900
H1624       H  0.92087479  0.37873250  0.74212197     0.17800
H1625       H  0.91683409  0.46589119  0.67673885     0.17800
N1626       N  0.89433963  0.47628971  0.72988332    -0.88900
H1627       H  0.92476860  0.35241023  0.69120871     0.35200
H1628       H  0.95878106  0.36110312  0.70327324     0.40300
H1629       H  0.87576666  0.47976785  0.71690941     0.39900
H1630       H  0.90891657  0.49369089  0.72593326     0.34800
C1631       C  0.95422627  0.51722067  0.82344672    -0.26900
C1632       C  0.96164133  0.48820374  0.81519326    -0.15000
C1633       C  0.99123231  0.48161200  0.80795131     0.35600
C1634       C  0.01199396  0.50406649  0.80863989    -0.26400
C1635       C  0.00464506  0.53315092  0.81606783    -0.15600
C1636       C  0.97546589  0.53987289  0.82339420     0.36700
N1637       N  0.96685976  0.56984853  0.82837082    -0.89900
H1638       H  0.93151713  0.52275056  0.82778990     0.17800
H1639       H  0.03416996  0.49892718  0.80177680     0.17800
N1640       N  0.00101028  0.45314487  0.79771052    -0.88900
H1641       H  0.95682481  0.57102261  0.84906445     0.35200
H1642       H  0.95120013  0.57540773  0.81254406     0.40300
H1643       H  0.98431422  0.43761982  0.79724330     0.39900
H1644       H  0.01662265  0.44535127  0.81262995     0.34800
C1645       C  0.84917007  0.42683640  0.89182350    -0.26900
C1646       C  0.82288436  0.44212316  0.88760477    -0.15000
C1647       C  0.81768807  0.45577840  0.86018268     0.35600
C1648       C  0.83974610  0.45496485  0.83814420    -0.26400
C1649       C  0.86696995  0.44119974  0.84330218    -0.15600
C1650       C  0.87105150  0.42624079  0.87029959     0.36700
N1651       N  0.89726070  0.40997048  0.87618152    -0.89900
H1652       H  0.85313473  0.41552102  0.91244787     0.17800
H1653       H  0.83613349  0.46609193  0.81737198     0.17800
N1654       N  0.79064847  0.47117107  0.85516196    -0.88900
H1655       H  0.90710051  0.41899685  0.89495963     0.35200
H1656       H  0.89140675  0.38817625  0.88106793     0.40300
H1657       H  0.78988203  0.48909971  0.86974172     0.39900
H1658       H  0.79027201  0.47996794  0.83389318     0.34800
C1659       C  0.80796124  0.48847728  0.00830995    -0.26900
C1660       C  0.80828658  0.49886657  0.97931405    -0.15000
C1661       C  0.81094511  0.52951923  0.97395020     0.35600
C1662       C  0.81057529  0.54914464  0.99801534    -0.26400
C1663       C  0.80826997  0.53843326  0.02689579    -0.15600
C1664       C  0.80854739  0.50789091  0.03205363     0.36700
N1665       N  0.80663484  0.49654108  0.06139988    -0.89900
H1666       H  0.80439424  0.46520036  0.01262215     0.17800
H1667       H  0.80999646  0.57275592  0.99408197     0.17800
N1668       N  0.81183331  0.54143071  0.94464334    -0.88900
H1669       H  0.82476754  0.48290654  0.06493963     0.35200
H1670       H  0.78778982  0.48347740  0.06295458     0.40300
H1671       H  0.81234506  0.52456200  0.92887924     0.39900
H1672       H  0.83161757  0.55289214  0.94243628     0.34800
C1673       C  0.96742436  0.34997869  0.86208396    -0.26900
C1674       C  0.99262490  0.36240048  0.87500365    -0.15000
C1675       C  0.99774583  0.39296528  0.87189634     0.35600
C1676       C  0.97821164  0.41012098  0.85530593    -0.26400
C1677       C  0.95464236  0.39701644  0.84028393    -0.15600
C1678       C  0.94892296  0.36662193  0.84428996     0.36700
N1679       N  0.92421504  0.35207633  0.83118236    -0.89900
H1680       H  0.96218803  0.32685919  0.86538985     0.17800
H1681       H  0.98225390  0.43359882  0.85317783     0.17800
N1682       N  0.02326197  0.40650829  0.88435778    -0.88900
H1683       H  0.92677934  0.35165372  0.80834834     0.35200
H1684       H  0.90519517  0.36382624  0.83634747     0.40300
H1685       H  0.03534300  0.41612266  0.86728718     0.39900
H1686       H  0.01639209  0.42340585  0.89853964     0.34800
C1687       C  0.86920145  0.39538459  0.01318753    -0.26900
C1688       C  0.86703377  0.36501900  0.00701029    -0.15000
C1689       C  0.85105611  0.35603063  0.98172346     0.35600
C1690       C  0.83300849  0.37651134  0.96740548    -0.26400
C1691       C  0.83297970  0.40633973  0.97565377    -0.15600
C1692       C  0.85329467  0.41616098  0.99683840     0.36700
N1693       N  0.85761617  0.44697803  0.00230429    -0.89900
H1694       H  0.88245262  0.40324959  0.03132238     0.17800
H1695       H  0.81897306  0.36924676  0.94954666     0.17800
N1696       N  0.85356093  0.32645552  0.97029655    -0.88900
H1697       H  0.87950740  0.45196423  0.99762373     0.35200
H1698       H  0.85429020  0.45083092  0.02479175     0.40300
H1699       H  0.87531639  0.32345136  0.96365710     0.39900
H1700       H  0.84063599  0.32374059  0.95148193     0.34800
C1701       C  0.95192580  0.35045744  0.98958973    -0.26900
C1702       C  0.95642593  0.33256158  0.01435777    -0.15000
C1703       C  0.98337565  0.31747699  0.01761699     0.35600
C1704       C  0.00365439  0.31807556  0.99447382    -0.26400
C1705       C  0.99778620  0.33357867  0.96841357    -0.15600
C1706       C  0.97224353  0.35082626  0.96643789     0.36700
N1707       N  0.96553664  0.36655626  0.93997706    -0.89900
H1708       H  0.93134138  0.36205415  0.98687918     0.17800
H1709       H  0.02349299  0.30502633  0.99619557     0.17800
N1710       N  0.99032050  0.30043833  0.04339194    -0.88900
H1711       H  0.96255791  0.38882812  0.94539820     0.35200
H1712       H  0.94574618  0.35842219  0.93164753     0.40300
H1713       H  0.97439578  0.30304905  0.05972784     0.39900
H1714       H  0.00957849  0.30918863  0.05233094     0.34800
C1715       C  0.85905177  0.45738850  0.26087414    -0.26900
C1716       C  0.88702600  0.44944163  0.25027803    -0.15000
C1717       C  0.90904192  0.44347533  0.27140979     0.35600
C1718       C  0.90508694  0.45293519  0.30077370    -0.26400
C1719       C  0.87880222  0.46632556  0.30986967    -0.15600
C1720       C  0.85470624  0.46591155  0.29038442     0.36700
N1721       N  0.82618979  0.47522120  0.30021851    -0.89900
H1722       H  0.84054407  0.45798866  0.24610583     0.17800
H1723       H  0.92311510  0.45116219  0.31615411     0.17800
N1724       N  0.93600866  0.42962855  0.26255271    -0.88900
H1725       H  0.81915222  0.46011209  0.31612509     0.35200
H1726       H  0.81101798  0.47413608  0.28301172     0.40300
H1727       H  0.93091450  0.40825621  0.25535249     0.39900
H1728       H  0.95003046  0.42728213  0.28057323     0.34800
C1729       C  0.87613918  0.51763060  0.13708631    -0.26900
C1730       C  0.86333441  0.49241109  0.14966025    -0.15000
C1731       C  0.83334024  0.48654944  0.14484843     0.35600
C1732       C  0.81660893  0.50706200  0.12942211    -0.26400
C1733       C  0.82877427  0.53346380  0.11842308    -0.15600
C1734       C  0.85904370  0.53854706  0.12210885     0.36700
N1735       N  0.87233704  0.56538797  0.11208493    -0.89900
H1736       H  0.89928359  0.52187893  0.14008193     0.17800
H1737       H  0.79379245  0.50176722  0.12559839     0.17800
N1738       N  0.81909620  0.46002483  0.15497796    -0.88900
H1739       H  0.88926423  0.55984799  0.09752408     0.35200
H1740       H  0.88164014  0.57611387  0.13024331     0.40300
H1741       H  0.83390464  0.44527214  0.16434062     0.39900
H1742       H  0.81071146  0.44910431  0.13647981     0.34800
C1743       C  0.92891135  0.40095584  0.12849848    -0.26900
C1744       C  0.90573507  0.40258029  0.14880103    -0.15000
C1745       C  0.88222056  0.38243390  0.14611332     0.35600
C1746       C  0.88204889  0.36163048  0.12302240    -0.26400
C1747       C  0.90492470  0.36045721  0.10227590    -0.15600
C1748       C  0.92888872  0.37991506  0.10559863     0.36700
N1749       N  0.95360181  0.37797514  0.08620411    -0.89900
H1750       H  0.94722289  0.41610841  0.13044749     0.17800
H1751       H  0.86336274  0.34700771  0.12074165     0.17800
N1752       N  0.85779770  0.38383748  0.16593452    -0.88900
H1753       H  0.97219877  0.37372265  0.09891726     0.35200
H1754       H  0.95641027  0.39853355  0.07611563     0.40300
H1755       H  0.85571353  0.36325249  0.17614584     0.39900
H1756       H  0.83886073  0.38754227  0.15355804     0.34800
C1757       C  0.09922858  0.49703297  0.88463447    -0.26900
C1758       C  0.12739278  0.50664064  0.89218887    -0.15000
C1759       C  0.13558859  0.53603929  0.88580796     0.35600
C1760       C  0.11721063  0.55377297  0.86846448    -0.26400
C1761       C  0.09024784  0.54298568  0.85825302    -0.15600
C1762       C  0.08061117  0.51496780  0.86781082     0.36700
N1763       N  0.05270665  0.50375345  0.85903436    -0.89900
H1764       H  0.09228635  0.47479612  0.89013164     0.17800
H1765       H  0.12455215  0.57558620  0.86192017     0.17800
N1766       N  0.16257512  0.54787992  0.89678129    -0.88900
H1767       H  0.04057511  0.49926241  0.87806468     0.35200
H1768       H  0.05614586  0.48369204  0.84804390     0.40300
H1769       H  0.15766146  0.56637800  0.90975004     0.39900
H1770       H  0.17509294  0.55495739  0.87881697     0.34800
C1771       C  0.10551706  0.36482043  0.89569577    -0.26900
C1772       C  0.08469143  0.36288399  0.91842331    -0.15000
C1773       C  0.08617600  0.38319048  0.94199987     0.35600
C1774       C  0.10789711  0.40522751  0.94218039    -0.26400
C1775       C  0.12831239  0.40772788  0.91907807    -0.15600
C1776       C  0.12701251  0.38712966  0.89564426     0.36700
N1777       N  0.14651313  0.38952478  0.87101770    -0.89900
H1778       H  0.10436393  0.34970006  0.87716825     0.17800
H1779       H  0.10876305  0.42043251  0.96064717     0.17800
N1780       N  0.06594959  0.38127791  0.96609507    -0.88900
H1781       H  0.13393009  0.39221337  0.85198977     0.35200
H1782       H  0.15801512  0.36963110  0.86907791     0.40300
H1783       H  0.05480823  0.40141232  0.96768238     0.39900
H1784       H  0.07794658  0.37839677  0.98547144     0.34800
C1785       C  0.14261575  0.63160438  0.98383894    -0.26900
C1786       C  0.13141499  0.62473417  0.01195556    -0.15000
C1787       C  0.10202260  0.63148522  0.01849323     0.35600
C1788       C  0.08493353  0.64621110  0.99754852    -0.26400
C1789       C  0.09726438  0.65619861  0.97112941    -0.15600
C1790       C  0.12589072  0.64741830  0.96351083     0.36700
N1791       N  0.13825729  0.65400931  0.93523332    -0.89900
H1792       H  0.16467753  0.62510823  0.97780263     0.17800
H1793       H  0.06248380  0.65148766  0.00273245     0.17800
N1794       N  0.08999369  0.62518254  0.04695722    -0.88900
H1795       H  0.13916315  0.67691028  0.93256760     0.35200
H1796       H  0.12435360  0.64530682  0.91909108     0.40300
H1797       H  0.07141138  0.61195978  0.04407522     0.39900
H1798       H  0.08337859  0.64511673  0.05658814     0.34800
C1799       C  0.17124250  0.50659761  0.02920549    -0.26900
C1800       C  0.15527593  0.53275145  0.02484455    -0.15000
C1801       C  0.13638272  0.53477092  0.00036293     0.35600
C1802       C  0.13655844  0.51240638  0.97903033    -0.26400
C1803       C  0.15578433  0.48843641  0.98134829    -0.15600
C1804       C  0.17178975  0.48438749  0.00755946     0.36700
N1805       N  0.18991517  0.45868517  0.01115399    -0.89900
H1806       H  0.18516765  0.50461727  0.04841696     0.17800
H1807       H  0.12390112  0.51558037  0.95912581     0.17800
N1808       N  0.11903969  0.56058787  0.99542578    -0.88900
H1809       H  0.17610505  0.44023720  0.01144680     0.35200
H1810       H  0.20057602  0.45926793  0.03152133     0.40300
H1811       H  0.09710666  0.55408835  0.99390977     0.39900
H1812       H  0.12518443  0.56963649  0.97515209     0.34800
C1813       C  0.02167906  0.64359435  0.25870178    -0.26900
C1814       C  0.03270822  0.61642314  0.24819490    -0.15000
C1815       C  0.04187594  0.59542788  0.26936264     0.35600
C1816       C  0.03520959  0.59964126  0.29935469    -0.26400
C1817       C  0.02055459  0.62512448  0.30914468    -0.15600
C1818       C  0.01556344  0.64817636  0.28878377     0.36700
N1819       N  0.00332589  0.67585492  0.29844068    -0.89900
H1820       H  0.01716225  0.66146196  0.24378590     0.17800
H1821       H  0.04040845  0.58221856  0.31481087     0.17800
N1822       N  0.05661246  0.56895684  0.26027654    -0.88900
H1823       H  0.00019727  0.69013579  0.28065325     0.35200
H1824       H  0.01875456  0.68597804  0.31217097     0.40300
H1825       H  0.04416803  0.55083613  0.26721140     0.39900
H1826       H  0.07680855  0.56815664  0.27107239     0.34800
C1827       C  0.95370129  0.64568632  0.11413836    -0.26900
C1828       C  0.96347770  0.67423812  0.10715330    -0.15000
C1829       C  0.99149052  0.68335718  0.11703839     0.35600
C1830       C  0.00796925  0.66470919  0.13528845    -0.26400
C1831       C  0.99747912  0.63672895  0.14321490    -0.15600
C1832       C  0.97049383  0.62690076  0.13189451     0.36700
N1833       N  0.95940414  0.59833036  0.13936751    -0.89900
H1834       H  0.93239750  0.63817732  0.10671952     0.17800
H1835       H  0.02895041  0.67224771  0.14360288     0.17800
N1836       N  0.00359297  0.71121834  0.10828206    -0.88900
H1837       H  0.95602990  0.58650998  0.11983505     0.35200
H1838       H  0.93905870  0.60112241  0.14964591     0.40300
H1839       H  0.02339373  0.70721040  0.09734686     0.39900
H1840       H  0.00819643  0.72344283  0.12730941     0.34800
C1841       C  0.97885424  0.49413112  0.16486104    -0.26900
C1842       C  0.95085108  0.49845717  0.17696233    -0.15000
C1843       C  0.94252198  0.52694511  0.18642077     0.35600
C1844       C  0.96275576  0.54996957  0.18565026    -0.26400
C1845       C  0.99146479  0.54543623  0.17565566    -0.15600
C1846       C  0.99930022  0.51744578  0.16416970     0.36700
N1847       N  0.02813101  0.51173391  0.15319275    -0.89900
H1848       H  0.98538404  0.47226949  0.15757094     0.17800
H1849       H  0.95645900  0.57128623  0.19462821     0.17800
N1850       N  0.91394029  0.53220695  0.19849671    -0.88900
H1851       H  0.04319403  0.51665073  0.16982802     0.35200
H1852       H  0.03182223  0.52591969  0.13544784     0.40300
H1853       H  0.90418096  0.54929217  0.18656679     0.39900
H1854       H  0.91643141  0.53949523  0.22023118     0.34800
C1855       C  0.12607490  0.61618972  0.12594463    -0.26900
C1856       C  0.13077070  0.59048186  0.10924256    -0.15000
C1857       C  0.11385706  0.56505054  0.11503577     0.35600
C1858       C  0.09127137  0.56639594  0.13614046    -0.26400
C1859       C  0.08565321  0.59245386  0.15192012    -0.15600
C1860       C  0.10364699  0.61737662  0.14718380     0.36700
N1861       N  0.09834673  0.64433544  0.16294096    -0.89900
H1862       H  0.13902174  0.63580565  0.12161096     0.17800
H1863       H  0.07800967  0.54706956  0.14026391     0.17800
N1864       N  0.11969702  0.53800097  0.09939398    -0.88900
H1865       H  0.09400084  0.66094712  0.14759731     0.35200
H1866       H  0.11752294  0.65001245  0.17419576     0.40300
H1867       H  0.10542500  0.52129853  0.10630805     0.39900
H1868       H  0.14083813  0.53117010  0.10502594     0.34800
C1869       C  0.40825195  0.33391617  0.91289940    -0.26900
C1870       C  0.42606794  0.34187453  0.88894540    -0.15000
C1871       C  0.42887635  0.32174414  0.86529282     0.35600
C1872       C  0.41858631  0.29265505  0.86839578    -0.26400
C1873       C  0.40619857  0.28291611  0.89513591    -0.15600
C1874       C  0.39768873  0.30484073  0.91579290     0.36700
N1875       N  0.38046778  0.29706568  0.94103810    -0.89900
H1876       H  0.40403486  0.34968497  0.93041550     0.17800
H1877       H  0.42196198  0.27763006  0.85020056     0.17800
N1878       N  0.44326603  0.33023182  0.83853572    -0.88900
H1879       H  0.36154016  0.31006372  0.94090354     0.35200
H1880       H  0.39238666  0.30246664  0.95996194     0.40300
H1881       H  0.42860916  0.32703345  0.82113434     0.39900
H1882       H  0.46114727  0.31615948  0.83523460     0.34800
C1883       C  0.23654074  0.46822500  0.87476688    -0.26900
C1884       C  0.22779175  0.45824669  0.90284532    -0.15000
C1885       C  0.25018870  0.44943825  0.92252528     0.35600
C1886       C  0.27950963  0.45728145  0.91680418    -0.26400
C1887       C  0.28732026  0.47219594  0.89085238    -0.15600
C1888       C  0.26592664  0.47527144  0.86865509     0.36700
N1889       N  0.27360106  0.48653779  0.84020590    -0.89900
H1890       H  0.22055379  0.47161817  0.85756314     0.17800
H1891       H  0.29597990  0.45274607  0.93334112     0.17800
N1892       N  0.24324866  0.43320375  0.94868225    -0.88900
H1893       H  0.26123287  0.50559219  0.83641681     0.35200
H1894       H  0.26766881  0.47074062  0.82443366     0.40300
H1895       H  0.25099401  0.44514065  0.96683969     0.39900
H1896       H  0.25461956  0.41316532  0.94786427     0.34800
C1897       C  0.38111760  0.76437849  0.98297535    -0.26900
C1898       C  0.38702074  0.77300561  0.95366000    -0.15000
C1899       C  0.38820189  0.75037625  0.93197479     0.35600
C1900       C  0.38296990  0.72058075  0.93997904    -0.26400
C1901       C  0.37699340  0.71256473  0.96932910    -0.15600
C1902       C  0.37555824  0.73505759  0.99079182     0.36700
N1903       N  0.36833455  0.72840961  0.02080445    -0.89900
H1904       H  0.38109737  0.78072317  0.00048519     0.17800
H1905       H  0.38444649  0.70353805  0.92321456     0.17800
N1906       N  0.39602027  0.75686824  0.90219798    -0.88900
H1907       H  0.34958946  0.74042093  0.02654101     0.35200
H1908       H  0.38557011  0.73560467  0.03418009     0.40300
H1909       H  0.37903268  0.74957204  0.88856007     0.39900
H1910       H  0.41484802  0.74480362  0.89689099     0.34800
C1911       C  0.23908631  0.63575145  0.05274142    -0.26900
C1912       C  0.23001931  0.60684374  0.05972725    -0.15000
C1913       C  0.25209875  0.58535523  0.06404676     0.35600
C1914       C  0.28076011  0.59097207  0.05425516    -0.26400
C1915       C  0.28824910  0.61821554  0.04148472    -0.15600
C1916       C  0.26760886  0.64155971  0.04303582     0.36700
N1917       N  0.27435174  0.67108728  0.03393840    -0.89900
H1918       H  0.22351259  0.65377702  0.05289124     0.17800
H1919       H  0.29685208  0.57342823  0.05557338     0.17800
N1920       N  0.24549500  0.55767734  0.07784678    -0.88900
H1921       H  0.27913717  0.67104102  0.01142144     0.35200
H1922       H  0.29256749  0.67852833  0.04577567     0.40300
H1923       H  0.25850500  0.55590826  0.09668938     0.39900
H1924       H  0.25158824  0.54064602  0.06345528     0.34800
C1925       C  0.69001113  0.43025426  0.99087411    -0.26900
C1926       C  0.66916162  0.42279160  0.96953579    -0.15000
C1927       C  0.67847203  0.41953496  0.93988684     0.35600
C1928       C  0.70814946  0.42512852  0.93223103    -0.26400
C1929       C  0.72890677  0.43320330  0.95374179    -0.15600
C1930       C  0.71932174  0.43521516  0.98352130     0.36700
N1931       N  0.73943467  0.44261096  0.00668666    -0.89900
H1932       H  0.68358052  0.43255964  0.01377044     0.17800
H1933       H  0.71484755  0.42298774  0.90948838     0.17800
N1934       N  0.65793546  0.41045991  0.91767864    -0.88900
H1935       H  0.73933155  0.42543627  0.02205078     0.35200
H1936       H  0.73195202  0.46177391  0.01722151     0.40300
H1937       H  0.65142986  0.38886153  0.92262001     0.39900
H1938       H  0.66809778  0.40953034  0.89703003     0.34800
C1939       C  0.55091400  0.32631557  0.05945613    -0.26900
C1940       C  0.57687638  0.33323705  0.04432322    -0.15000
C1941       C  0.59925639  0.31175326  0.04289259     0.35600
C1942       C  0.59304099  0.28254280  0.05145589    -0.26400
C1943       C  0.56482392  0.27428560  0.06117855    -0.15600
C1944       C  0.54506851  0.29725804  0.06878285     0.36700
N1945       N  0.51807422  0.29056637  0.08374245    -0.89900
H1946       H  0.53440724  0.34322378  0.06265491     0.17800
H1947       H  0.61021580  0.26628608  0.04949519     0.17800
N1948       N  0.62784584  0.31933005  0.03186834    -0.88900
H1949       H  0.50563816  0.30973063  0.08686531     0.35200
H1950       H  0.52343680  0.28282515  0.10471692     0.40300
H1951       H  0.64161228  0.30086712  0.03182176     0.39900
H1952       H  0.63704210  0.33454899  0.04658383     0.34800
C1953       C  0.53298406  0.71439809  0.09658528    -0.26900
C1954       C  0.50287981  0.70788111  0.09365344    -0.15000
C1955       C  0.48335406  0.73136739  0.08800714     0.35600
C1956       C  0.49410488  0.75998147  0.08528329    -0.26400
C1957       C  0.52423061  0.76694624  0.08775539    -0.15600
C1958       C  0.54379090  0.74360455  0.09396139     0.36700
N1959       N  0.57436699  0.74902246  0.09792503    -0.89900
H1960       H  0.54831105  0.69672487  0.10115255     0.17800
H1961       H  0.47837963  0.77734189  0.08074401     0.17800
N1962       N  0.45244675  0.72712520  0.08425714    -0.88900
H1963       H  0.58587263  0.73630783  0.08250359     0.35200
H1964       H  0.58017362  0.74176722  0.11896949     0.40300
H1965       H  0.44355814  0.71881679  0.10379004     0.39900
H1966       H  0.44892880  0.71219813  0.06698909     0.34800
C1967       C  0.68953114  0.52939983  0.09705367    -0.26900
C1968       C  0.66843100  0.55125105  0.10165928    -0.15000
C1969       C  0.67783473  0.58121828  0.10347709     0.35600
C1970       C  0.70771876  0.58843778  0.09908781    -0.26400
C1971       C  0.72861402  0.56624784  0.09345040    -0.15600
C1972       C  0.71897350  0.53631296  0.09326972     0.36700
N1973       N  0.73918810  0.51243360  0.08873284    -0.89900
H1974       H  0.68325812  0.50629573  0.09615357     0.17800
H1975       H  0.71437820  0.61137652  0.09995407     0.17800
N1976       N  0.65774019  0.60472642  0.10960746    -0.88900
H1977       H  0.73803110  0.49835809  0.10693082     0.35200
H1978       H  0.73261386  0.50052021  0.07009543     0.40300
H1979       H  0.64777286  0.60063799  0.12995331     0.39900
H1980       H  0.64168560  0.60488851  0.09322302     0.34800
C1981       C  0.22508125  0.50704642  0.57841793    -0.26900
C1982       C  0.23430698  0.47742177  0.58159466    -0.15000
C1983       C  0.21267765  0.45607777  0.58866771     0.35600
C1984       C  0.18305943  0.46491416  0.59236031    -0.26400
C1985       C  0.17451653  0.49471139  0.58936627    -0.15600
C1986       C  0.19599643  0.51573125  0.58197175     0.36700
N1987       N  0.18842325  0.54612383  0.57741344    -0.89900
H1988       H  0.24091662  0.52403352  0.57282880     0.17800
H1989       H  0.16677047  0.44843004  0.59801983     0.17800
N1990       N  0.22020648  0.42566445  0.59228790    -0.88900
H1991       H  0.19453917  0.55192401  0.55597523     0.35200
H1992       H  0.20062722  0.55903959  0.59208769     0.40300
H1993       H  0.20796073  0.41323863  0.57724200     0.39900
H1994       H  0.21405328  0.41925775  0.61353427     0.34800
C1995       C  0.44300119  0.26796414  0.63300003    -0.26900
C1996       C  0.42824113  0.27848748  0.60784380    -0.15000
C1997       C  0.41761670  0.25696605  0.58752233     0.35600
C1998       C  0.42728338  0.22766227  0.58942197    -0.26400
C1999       C  0.44658485  0.21866579  0.61169382    -0.15600
C2000       C  0.45280247  0.23876053  0.63481308     0.36700
N2001       N  0.46965194  0.23065592  0.66013730    -0.89900
H2002       H  0.44887823  0.28235711  0.65094898     0.17800
H2003       H  0.42046851  0.21211265  0.57255813     0.17800
N2004       N  0.39769446  0.26412864  0.56422025    -0.88900
H2005       H  0.49089262  0.22521414  0.65347022     0.35200
H2006       H  0.45977056  0.21239585  0.67017542     0.40300
H2007       H  0.40680678  0.27999379  0.55033589     0.39900
H2008       H  0.37840855  0.27241597  0.57350006     0.34800
C2009       C  0.35840752  0.37906926  0.60151516    -0.26900
C2010       C  0.37931525  0.37615251  0.57888628    -0.15000
C2011       C  0.37670851  0.39390619  0.55362540     0.35600
C2012       C  0.35395169  0.41466826  0.55168032    -0.26400
C2013       C  0.33351230  0.41818041  0.57459907    -0.15600
C2014       C  0.33572639  0.40003498  0.59965869     0.36700
N2015       N  0.31598436  0.40387924  0.62391708    -0.89900
H2016       H  0.36036818  0.36585721  0.62128806     0.17800
H2017       H  0.35251985  0.42847523  0.53226044     0.17800
N2018       N  0.39695968  0.39075134  0.52972812    -0.88900
H2019       H  0.32833147  0.40915129  0.64259378     0.35200
H2020       H  0.30550752  0.38368280  0.62773032     0.40300
H2021       H  0.40705271  0.41120752  0.52624530     0.39900
H2022       H  0.38510104  0.38532025  0.51077845     0.34800
C2023       C  0.57515947  0.45725426  0.23561518    -0.26900
C2024       C  0.58211786  0.47916328  0.25669401    -0.15000
C2025       C  0.59036964  0.50753226  0.24604607     0.35600
C2026       C  0.59209091  0.51303375  0.21580520    -0.26400
C2027       C  0.58419995  0.49169473  0.19493331    -0.15600
C2028       C  0.57602393  0.46321222  0.20494721     0.36700
N2029       N  0.56779030  0.44068905  0.18415184    -0.89900
H2030       H  0.56744708  0.43588566  0.24287904     0.17800
H2031       H  0.59819706  0.53506586  0.20873598     0.17800
N2032       N  0.59537370  0.53176585  0.26580944    -0.88900
H2033       H  0.56154090  0.42135621  0.19506683     0.35200
H2034       H  0.58643117  0.43538267  0.17180247     0.40300
H2035       H  0.61676400  0.53938023  0.26249940     0.39900
H2036       H  0.58109247  0.54886197  0.26013876     0.34800
C2037       C  0.60681838  0.26446390  0.45833062    -0.26900
C2038       C  0.58104959  0.27554934  0.44536913    -0.15000
C2039       C  0.56003514  0.25469090  0.43538410     0.35600
C2040       C  0.56243776  0.22475263  0.44343441    -0.26400
C2041       C  0.58601568  0.21486234  0.46055313    -0.15600
C2042       C  0.60942737  0.23454416  0.46619755     0.36700
N2043       N  0.63555626  0.22429758  0.48060255    -0.89900
H2044       H  0.62491644  0.27887977  0.46334446     0.17800
H2045       H  0.54498307  0.20959547  0.43756728     0.17800
N2046       N  0.53515879  0.26419896  0.41870994    -0.88900
H2047       H  0.65046935  0.24158787  0.48366455     0.35200
H2048       H  0.64568693  0.20907041  0.46651548     0.40300
H2049       H  0.51619281  0.25841376  0.43031305     0.39900
H2050       H  0.53511828  0.25258994  0.39875716     0.34800
C2051       C  0.52297044  0.33703113  0.51854019    -0.26900
C2052       C  0.51456141  0.34737937  0.49077643    -0.15000
C2053       C  0.48656594  0.35986784  0.48713213     0.35600
C2054       C  0.46684996  0.35993932  0.51092370    -0.26400
C2055       C  0.47479656  0.34783258  0.53824242    -0.15600
C2056       C  0.50380957  0.33738068  0.54233511     0.36700
N2057       N  0.51461604  0.32634185  0.56996315    -0.89900
H2058       H  0.54468500  0.32778952  0.52157825     0.17800
H2059       H  0.44475414  0.36775500  0.50747606     0.17800
N2060       N  0.47719094  0.37112339  0.45927222    -0.88900
H2061       H  0.51809113  0.30360716  0.56761193     0.35200
H2062       H  0.49982406  0.32933546  0.58718192     0.40300
H2063       H  0.47896805  0.35422862  0.44359942     0.39900
H2064       H  0.49142074  0.38819891  0.45327447     0.34800
C2065       C  0.53396358  0.39122156  0.39054778    -0.26900
C2066       C  0.55940818  0.37448881  0.39498309    -0.15000
C2067       C  0.58413500  0.37978236  0.37706980     0.35600
C2068       C  0.58298905  0.40155062  0.35505134    -0.26400
C2069       C  0.55775580  0.41879743  0.35107918    -0.15600
C2070       C  0.53288443  0.41333774  0.36878688     0.36700
N2071       N  0.50679740  0.43062274  0.36488055    -0.89900
H2072       H  0.51501920  0.38727422  0.40438590     0.17800
H2073       H  0.60247944  0.40616557  0.34216887     0.17800
N2074       N  0.61102126  0.36440702  0.38240921    -0.88900
H2075       H  0.49052631  0.42404059  0.37974238     0.35200
H2076       H  0.49878261  0.42615590  0.34377072     0.40300
H2077       H  0.62715677  0.38006223  0.38740635     0.39900
H2078       H  0.61714867  0.35361647  0.36295485     0.34800
C2079       C  0.21307280  0.61811551  0.43129288    -0.26900
C2080       C  0.23304227  0.60961013  0.45334574    -0.15000
C2081       C  0.22200207  0.60458144  0.48220750     0.35600
C2082       C  0.19236891  0.60838174  0.48843994    -0.26400
C2083       C  0.17250525  0.61733062  0.46685590    -0.15600
C2084       C  0.18288445  0.62216888  0.43780838     0.36700
N2085       N  0.16299629  0.63149784  0.41517798    -0.89900
H2086       H  0.22081873  0.62206712  0.40914582     0.17800
H2087       H  0.18494920  0.60428868  0.51076678     0.17800
N2088       N  0.24105309  0.59571680  0.50570147    -0.88900
H2089       H  0.17396027  0.63356745  0.39503861     0.35200
H2090       H  0.15559206  0.65264592  0.42080478     0.40300
H2091       H  0.23352762  0.57554591  0.51401296     0.39900
H2092       H  0.23968858  0.61149061  0.52253911     0.34800
C2093       C  0.33708147  0.54420117  0.49203345    -0.26900
C2094       C  0.31732574  0.54227240  0.46854521    -0.15000
C2095       C  0.30241663  0.51522044  0.46375552     0.35600
C2096       C  0.30162172  0.49429992  0.48632535    -0.26400
C2097       C  0.31607376  0.49959806  0.51307591    -0.15600
C2098       C  0.33624247  0.52320699  0.51475280     0.36700
N2099       N  0.35373821  0.52758256  0.54052491    -0.89900
H2100       H  0.35045563  0.56376552  0.49467578     0.17800
H2101       H  0.28754583  0.47512338  0.48397116     0.17800
N2102       N  0.28645145  0.50929611  0.43710856    -0.88900
H2103       H  0.34794557  0.54773210  0.55017713     0.35200
H2104       H  0.37570487  0.52873348  0.53405205     0.40300
H2105       H  0.28960778  0.52615031  0.42172546     0.39900
H2106       H  0.26412858  0.50852484  0.44228524     0.34800
C2107       C  0.46753644  0.62137101  0.20739136    -0.26900
C2108       C  0.44495250  0.62205302  0.18671556    -0.15000
C2109       C  0.41554754  0.62042373  0.19670506     0.35600
C2110       C  0.40963742  0.61787284  0.22731026    -0.26400
C2111       C  0.43259444  0.61629564  0.24795345    -0.15600
C2112       C  0.46189296  0.61786266  0.23730667     0.36700
N2113       N  0.48640177  0.61489281  0.25683872    -0.89900
H2114       H  0.49020815  0.62225608  0.20026126     0.17800
H2115       H  0.38718120  0.61615346  0.23471404     0.17800
N2116       N  0.39188388  0.62093234  0.17588515    -0.88900
H2117       H  0.49945307  0.63381286  0.25496078     0.35200
H2118       H  0.49883116  0.59668337  0.25005496     0.40300
H2119       H  0.39199972  0.64168938  0.16582071     0.39900
H2120       H  0.37173273  0.61898846  0.18671595     0.34800
C2121       C  0.49356217  0.56356105  0.32143678    -0.26900
C2122       C  0.46511065  0.55373622  0.32700593    -0.15000
C2123       C  0.46017691  0.52431717  0.33575831     0.35600
C2124       C  0.48425326  0.50480642  0.33766564    -0.26400
C2125       C  0.51257408  0.51449653  0.33020323    -0.15600
C2126       C  0.51713137  0.54435918  0.32261451     0.36700
N2127       N  0.54544511  0.55476592  0.31360683    -0.89900
H2128       H  0.49725893  0.58584455  0.31351100     0.17800
H2129       H  0.48059560  0.48166956  0.34245756     0.17800
N2130       N  0.43075618  0.51395279  0.34029404    -0.88900
H2131       H  0.54352092  0.56278766  0.29213287     0.35200
H2132       H  0.55116239  0.57265342  0.32707841     0.40300
H2133       H  0.42209264  0.52550243  0.35829222     0.39900
H2134       H  0.43084513  0.49158887  0.34604901     0.34800
C2135       C  0.37655728  0.62552511  0.37009991    -0.26900
C2136       C  0.37276855  0.60692094  0.34576467    -0.15000
C2137       C  0.34710966  0.58960563  0.34368715     0.35600
C2138       C  0.32584766  0.59118767  0.36644278    -0.26400
C2139       C  0.33039940  0.60906319  0.39147901    -0.15600
C2140       C  0.35599389  0.62648400  0.39290252     0.36700
N2141       N  0.36158960  0.64505044  0.41775284    -0.89900
H2142       H  0.39622583  0.63886800  0.37194068     0.17800
H2143       H  0.30656821  0.57722844  0.36546772     0.17800
N2144       N  0.34343064  0.56957441  0.31934852    -0.88900
H2145       H  0.38139644  0.63849346  0.42725222     0.35200
H2146       H  0.36413310  0.66672434  0.41020362     0.40300
H2147       H  0.36004657  0.55372163  0.32062418     0.39900
H2148       H  0.32358079  0.55817824  0.32127211     0.34800
C2149       C  0.41229818  0.58810558  0.77248148    -0.26900
C2150       C  0.38956823  0.58753565  0.75140899    -0.15000
C2151       C  0.36066280  0.58343510  0.76206328     0.35600
C2152       C  0.35608281  0.57348085  0.79107611    -0.26400
C2153       C  0.37972350  0.56860904  0.81025940    -0.15600
C2154       C  0.40785645  0.57788970  0.80133603     0.36700
N2155       N  0.43229634  0.57588662  0.82097969    -0.89900
H2156       H  0.43432437  0.59422017  0.76596105     0.17800
H2157       H  0.33393564  0.56857698  0.79820508     0.17800
N2158       N  0.33585609  0.58996743  0.74395278    -0.88900
H2159       H  0.44141802  0.59698264  0.82322304     0.35200
H2160       H  0.44803093  0.56214089  0.81128589     0.40300
H2161       H  0.32372869  0.60658114  0.75439062     0.39900
H2162       H  0.32263562  0.57109544  0.74288831     0.34800
C2163       C  0.38065260  0.53058841  0.62922738    -0.26900
C2164       C  0.36709955  0.55213701  0.64665693    -0.15000
C2165       C  0.33696585  0.55710724  0.64338392     0.35600
C2166       C  0.32067071  0.53911075  0.62432429    -0.26400
C2167       C  0.33344961  0.51458339  0.60980496    -0.15600
C2168       C  0.36408186  0.51051418  0.61255508     0.36700
N2169       N  0.37853164  0.48538173  0.60003922    -0.89900
H2170       H  0.40415755  0.52830167  0.62961057     0.17800
H2171       H  0.29777350  0.54443862  0.62138202     0.17800
N2172       N  0.32297038  0.58087119  0.65887876    -0.88900
H2173       H  0.39510797  0.49295015  0.58601581     0.35200
H2174       H  0.38831610  0.47344761  0.61707556     0.40300
H2175       H  0.30612359  0.57196536  0.67174183     0.39900
H2176       H  0.31354442  0.59497238  0.64335133     0.34800
C2177       C  0.42832506  0.80073381  0.54849105    -0.26900
C2178       C  0.40510168  0.78081391  0.55379358    -0.15000
C2179       C  0.37677789  0.79289709  0.55790967     0.35600
C2180       C  0.37144087  0.82269033  0.55089255    -0.26400
C2181       C  0.39418464  0.84129923  0.54132652    -0.15600
C2182       C  0.42320303  0.83040082  0.54176483     0.36700
N2183       N  0.44792116  0.84835473  0.53404129    -0.89900
H2184       H  0.45084956  0.79349003  0.54881992     0.17800
H2185       H  0.34924103  0.83108254  0.55225072     0.17800
N2186       N  0.35320901  0.77486566  0.56851216    -0.88900
H2187       H  0.44909315  0.86617995  0.54870033     0.35200
H2188       H  0.44512207  0.85621236  0.51259367     0.40300
H2189       H  0.33632589  0.77535785  0.55297648     0.39900
H2190       H  0.34528444  0.78437498  0.58797500     0.34800
C2191       C  0.36063288  0.65480926  0.52953603    -0.26900
C2192       C  0.36956427  0.68134572  0.51638834    -0.15000
C2193       C  0.35871941  0.68869767  0.48827185     0.35600
C2194       C  0.33926074  0.66953199  0.47401782    -0.26400
C2195       C  0.33174533  0.64222200  0.48631123    -0.15600
C2196       C  0.34150995  0.63533144  0.51505587     0.36700
N2197       N  0.33146428  0.60981131  0.53085721    -0.89900
H2198       H  0.36807881  0.64943126  0.55154212     0.17800
H2199       H  0.33023071  0.67589852  0.45292198     0.17800
N2200       N  0.36827320  0.71497449  0.47354504    -0.88900
H2201       H  0.34973478  0.59658147  0.53497270     0.35200
H2202       H  0.31654939  0.59739373  0.51859433     0.40300
H2203       H  0.37806200  0.70877216  0.45361279     0.39900
H2204       H  0.34979456  0.72769462  0.46870112     0.34800
C2205       C  0.39425341  0.68394598  0.62874154    -0.26900
C2206       C  0.41559028  0.68149865  0.60647993    -0.15000
C2207       C  0.43687174  0.65907126  0.60864750     0.35600
C2208       C  0.43564589  0.63875581  0.63190080    -0.26400
C2209       C  0.41336669  0.64000584  0.65325803    -0.15600
C2210       C  0.39280543  0.66331300  0.65191386     0.36700
N2211       N  0.36951727  0.66530018  0.67300819    -0.89900
H2212       H  0.37775011  0.70109615  0.62740716     0.17800
H2213       H  0.45203795  0.62147278  0.63288719     0.17800
N2214       N  0.45999739  0.65690989  0.58736975    -0.88900
H2215       H  0.34961551  0.66423924  0.66168084     0.35200
H2216       H  0.37084533  0.68597596  0.68328955     0.40300
H2217       H  0.45895450  0.63595638  0.57762688     0.39900
H2218       H  0.47997830  0.65862227  0.59847291     0.34800
C2219       C  0.54096096  0.79010715  0.37822082    -0.26900
C2220       C  0.54843317  0.77888565  0.40621952    -0.15000
C2221       C  0.55288454  0.79975639  0.42909526     0.35600
C2222       C  0.54298961  0.82905850  0.42577130    -0.26400
C2223       C  0.53068986  0.83876024  0.39915314    -0.15600
C2224       C  0.53209335  0.81971408  0.37442630     0.36700
N2225       N  0.52300160  0.82986828  0.34588292    -0.89900
H2226       H  0.54118787  0.77575695  0.35916335     0.17800
H2227       H  0.54409130  0.84400006  0.44444340     0.17800
N2228       N  0.56653244  0.79105791  0.45610643    -0.88900
H2229       H  0.52416308  0.81278155  0.33036091     0.35200
H2230       H  0.53806736  0.84590615  0.33909349     0.40300
H2231       H  0.55213927  0.79575220  0.47344988     0.39900
H2232       H  0.58524759  0.80408932  0.45898872     0.34800
C2233       C  0.47909413  0.69038645  0.37013018    -0.26900
C2234       C  0.50520710  0.67809860  0.38119826    -0.15000
C2235       C  0.51022220  0.64755601  0.37725864     0.35600
C2236       C  0.48929122  0.63019477  0.36255230    -0.26400
C2237       C  0.46451166  0.64308050  0.34967160    -0.15600
C2238       C  0.45924129  0.67334153  0.35386806     0.36700
N2239       N  0.43364214  0.68681868  0.34162085    -0.89900
H2240       H  0.47397496  0.71346641  0.37382246     0.17800
H2241       H  0.49328410  0.60683788  0.36009769     0.17800
N2242       N  0.53708383  0.63426388  0.38666501    -0.88900
H2243       H  0.42156904  0.69619626  0.35887219     0.35200
H2244       H  0.44042352  0.70386443  0.32766655     0.40300
H2245       H  0.54739664  0.62503271  0.36821593     0.39900
H2246       H  0.53196949  0.61708656  0.40116123     0.34800
C2247       C  0.48630484  0.68314133  0.46901430    -0.26900
C2248       C  0.51218622  0.69890278  0.47448709    -0.15000
C2249       C  0.51811465  0.70901580  0.50333759     0.35600
C2250       C  0.49592902  0.70756446  0.52462375    -0.26400
C2251       C  0.46808215  0.69626218  0.51770173    -0.15600
C2252       C  0.46411780  0.68178899  0.49030453     0.36700
N2253       N  0.43697905  0.66819328  0.48228631    -0.89900
H2254       H  0.48197832  0.67458577  0.44710569     0.17800
H2255       H  0.49953008  0.71797360  0.54586199     0.17800
N2256       N  0.54562063  0.72237438  0.51125181    -0.88900
H2257       H  0.42071197  0.68434261  0.48259866     0.35200
H2258       H  0.43200633  0.65188101  0.49774412     0.40300
H2259       H  0.56057874  0.72137559  0.49384008     0.39900
H2260       H  0.55470107  0.70961325  0.52808662     0.34800
C2261       C  0.76678295  0.58836513  0.43496425    -0.26900
C2262       C  0.74503746  0.58727365  0.41294203    -0.15000
C2263       C  0.75470003  0.58363866  0.38331083     0.35600
C2264       C  0.78320289  0.57326887  0.37783112    -0.26400
C2265       C  0.80299208  0.56852317  0.40097129    -0.15600
C2266       C  0.79554667  0.57883124  0.42938460     0.36700
N2267       N  0.81678279  0.57852929  0.45274853    -0.89900
H2268       H  0.76117076  0.59537352  0.45706198     0.17800
H2269       H  0.78947949  0.56790050  0.35540676     0.17800
N2270       N  0.73650305  0.59029108  0.35838370    -0.88900
H2271       H  0.80758917  0.58631025  0.47241047     0.35200
H2272       H  0.83340207  0.59340371  0.44706723     0.40300
H2273       H  0.71669417  0.59987871  0.36475728     0.39900
H2274       H  0.73200398  0.57058496  0.34717316     0.34800
C2275       C  0.61532154  0.54487972  0.39681091    -0.26900
C2276       C  0.64534835  0.53809695  0.39675816    -0.15000
C2277       C  0.65446668  0.51163075  0.38257351     0.35600
C2278       C  0.63437966  0.49582069  0.36503956    -0.26400
C2279       C  0.60476640  0.50404889  0.36352695    -0.15600
C2280       C  0.59496144  0.52732991  0.38193449     0.36700
N2281       N  0.56469171  0.53426907  0.38590061    -0.89900
H2282       H  0.60716372  0.56436005  0.40793090     0.17800
H2283       H  0.64188291  0.47696624  0.35231399     0.17800
N2284       N  0.68374874  0.50057637  0.38617869    -0.88900
H2285       H  0.55545220  0.53799772  0.36546533     0.35200
H2286       H  0.55430647  0.51633801  0.39590397     0.40300
H2287       H  0.68643328  0.49542622  0.40845589     0.39900
H2288       H  0.68665834  0.48087742  0.37442198     0.34800
C2289       C  0.62446385  0.63892726  0.44964537    -0.26900
C2290       C  0.64438445  0.63582964  0.42622523    -0.15000
C2291       C  0.64202800  0.65498834  0.40185039     0.35600
C2292       C  0.61989934  0.67665674  0.40130358    -0.26400
C2293       C  0.59950461  0.67909472  0.42437863    -0.15600
C2294       C  0.60210270  0.66020128  0.44887355     0.36700
N2295       N  0.58217948  0.66268732  0.47317884    -0.89900
H2296       H  0.62611549  0.62462306  0.46867843     0.17800
H2297       H  0.61783046  0.69072240  0.38213927     0.17800
N2298       N  0.66102265  0.65153703  0.37693200    -0.88900
H2299       H  0.59435300  0.66702985  0.49219789     0.35200
H2300       H  0.57171407  0.64229907  0.47588217     0.40300
H2301       H  0.67195109  0.67156926  0.37356510     0.39900
H2302       H  0.64806719  0.64727962  0.35842102     0.34800
C2303       C  0.76062742  0.45720128  0.56582362    -0.26900
C2304       C  0.73930700  0.43482088  0.56322367    -0.15000
C2305       C  0.74936284  0.40581926  0.55723441     0.35600
C2306       C  0.77804628  0.40147012  0.54666486    -0.26400
C2307       C  0.79755677  0.42533703  0.54355741    -0.15600
C2308       C  0.78922604  0.45307197  0.55553259     0.36700
N2309       N  0.80869414  0.47790668  0.55658273    -0.89900
H2310       H  0.75462616  0.47889895  0.57394862     0.17800
H2311       H  0.78470449  0.37943749  0.54004653     0.17800
N2312       N  0.73071161  0.38076887  0.56194735    -0.88900
H2313       H  0.81441042  0.48388727  0.53510953     0.35200
H2314       H  0.82745540  0.47194954  0.56832962     0.40300
H2315       H  0.74069996  0.36722992  0.57761081     0.39900
H2316       H  0.72949632  0.36873629  0.54227221     0.34800
C2317       C  0.61068344  0.41179933  0.52601638    -0.26900
C2318       C  0.63957653  0.41691163  0.51681164    -0.15000
C2319       C  0.64875835  0.40600611  0.48897472     0.35600
C2320       C  0.63017366  0.38709778  0.47302544    -0.26400
C2321       C  0.60204463  0.38035770  0.48335129    -0.15600
C2322       C  0.59175990  0.39400374  0.50930580     0.36700
N2323       N  0.56254403  0.38899745  0.51948881    -0.89900
H2324       H  0.60302548  0.42055278  0.54689772     0.17800
H2325       H  0.63764798  0.37745704  0.45244826     0.17800
N2326       N  0.67673381  0.41426991  0.47689564    -0.88900
H2327       H  0.55195192  0.40943620  0.52091470     0.35200
H2328       H  0.56370677  0.38021146  0.54074104     0.40300
H2329       H  0.67645498  0.43711520  0.47349751     0.39900
H2330       H  0.67995034  0.40445584  0.45625243     0.34800
C2331       C  0.68207560  0.53620526  0.53667956    -0.26900
C2332       C  0.66553863  0.51053916  0.53125214    -0.15000
C2333       C  0.64764270  0.50930667  0.50599496     0.35600
C2334       C  0.64984571  0.53159830  0.48476287    -0.26400
C2335       C  0.66981649  0.55494737  0.48823864    -0.15600
C2336       C  0.68450705  0.55831190  0.51528011     0.36700
N2337       N  0.70303494  0.58337225  0.52043856    -0.89900
H2338       H  0.69526270  0.53783210  0.55646031     0.17800
H2339       H  0.63796355  0.52891339  0.46429596     0.17800
N2340       N  0.62915746  0.48435189  0.50041378    -0.88900
H2341       H  0.72419308  0.57568364  0.52477034     0.35200
H2342       H  0.69543236  0.59425613  0.53931027     0.40300
H2343       H  0.60768147  0.49198915  0.49803667     0.39900
H2344       H  0.63556027  0.47476490  0.48042651     0.34800
C2345       C  0.54317568  0.41503236  0.76924825    -0.26900
C2346       C  0.54801586  0.44430415  0.75988646    -0.15000
C2347       C  0.54910551  0.46658515  0.78212816     0.35600
C2348       C  0.53804471  0.46049543  0.81040649    -0.26400
C2349       C  0.52826844  0.43207089  0.81796272    -0.15600
C2350       C  0.53308677  0.40878192  0.79777767     0.36700
N2351       N  0.52656828  0.37882069  0.80556924    -0.89900
H2352       H  0.54552272  0.39683710  0.75388412     0.17800
H2353       H  0.53679510  0.47825902  0.82643456     0.17800
N2354       N  0.56217263  0.49508289  0.77726760    -0.88900
H2355       H  0.54566403  0.36632845  0.80292069     0.35200
H2356       H  0.51087084  0.37072520  0.79085210     0.40300
H2357       H  0.54571802  0.51112294  0.77818317     0.39900
H2358       H  0.57260177  0.49618714  0.75681078     0.34800
C2359       C  0.47635099  0.41306708  0.66927219    -0.26900
C2360       C  0.50510056  0.41897886  0.65969366    -0.15000
C2361       C  0.51463235  0.40728533  0.63232616     0.35600
C2362       C  0.49548206  0.38983419  0.61561733    -0.26400
C2363       C  0.46737519  0.38287605  0.62601803    -0.15600
C2364       C  0.45755556  0.39509462  0.65282916     0.36700
N2365       N  0.42855964  0.38968466  0.66373085    -0.89900
H2366       H  0.46856596  0.42214645  0.68998169     0.17800
H2367       H  0.50307149  0.38075449  0.59489353     0.17800
N2368       N  0.54405606  0.41086315  0.62182856    -0.88900
H2369       H  0.42598028  0.36699745  0.66711258     0.35200
H2370       H  0.41358598  0.39636167  0.64766298     0.40300
H2371       H  0.55855222  0.40411355  0.63827794     0.39900
H2372       H  0.54782670  0.43304090  0.61692231     0.34800
C2373       C  0.48015513  0.49943600  0.67440718    -0.26900
C2374       C  0.50805811  0.51007724  0.68122411    -0.15000
C2375       C  0.51255704  0.54076614  0.68457234     0.35600
C2376       C  0.48878736  0.56011501  0.68148480    -0.26400
C2377       C  0.46037215  0.54908865  0.67691419    -0.15600
C2378       C  0.45613013  0.51840974  0.67372037     0.36700
N2379       N  0.42727963  0.50599198  0.67366706    -0.89900
H2380       H  0.47631973  0.47587958  0.67301778     0.17800
H2381       H  0.49200887  0.58353492  0.68546732     0.17800
N2382       N  0.54053389  0.55257422  0.69269875    -0.88900
H2383       H  0.42487385  0.49337115  0.69277829     0.35200
H2384       H  0.42583432  0.49143178  0.65578519     0.40300
H2385       H  0.55581379  0.54607073  0.67680080     0.39900
H2386       H  0.54669274  0.54342694  0.71288067     0.34800
C2387       C  0.61634168  0.43303345  0.65766039    -0.26900
C2388       C  0.59803395  0.45792921  0.65932599    -0.15000
C2389       C  0.60150884  0.48067966  0.63848735     0.35600
C2390       C  0.62247595  0.47791531  0.61601609    -0.26400
C2391       C  0.64020607  0.45268382  0.61372461    -0.15600
C2392       C  0.63714689  0.43009978  0.63488426     0.36700
N2393       N  0.65399045  0.40351699  0.63245863    -0.89900
H2394       H  0.61348659  0.41511332  0.67319697     0.17800
H2395       H  0.62481016  0.49564649  0.60017701     0.17800
N2396       N  0.58386437  0.50678784  0.64015373    -0.88900
H2397       H  0.63944604  0.38574268  0.63052477     0.35200
H2398       H  0.66577879  0.40088953  0.65199972     0.40300
H2399       H  0.57243107  0.50883553  0.62032356     0.39900
H2400       H  0.59784044  0.52500389  0.64217619     0.34800
C2401       C  0.03603908  0.95905809  0.78072653    -0.26900
C2402       C  0.05964736  0.95561368  0.76095592    -0.15000
C2403       C  0.08831625  0.95481443  0.77301236     0.35600
C2404       C  0.09285124  0.96390917  0.80241994    -0.26400
C2405       C  0.06924384  0.97228634  0.82052528    -0.15600
C2406       C  0.04051918  0.96795462  0.80997289     0.36700
N2407       N  0.01563456  0.97372888  0.82839671    -0.89900
H2408       H  0.01369927  0.95601339  0.77351755     0.17800
H2409       H  0.11499037  0.96539890  0.81087394     0.17800
N2410       N  0.11283319  0.94623457  0.75497753    -0.88900
H2411       H  0.00308175  0.95441841  0.82957647     0.35200
H2412       H  0.00294768  0.99006099  0.81833387     0.40300
H2413       H  0.10986090  0.92408191  0.74912411     0.39900
H2414       H  0.13234351  0.94732679  0.76699690     0.34800
C2415       C  0.18999748  0.02635553  0.92013822    -0.26900
C2416       C  0.16893201  0.04665987  0.91081782    -0.15000
C2417       C  0.17743251  0.07643204  0.90623964     0.35600
C2418       C  0.20687303  0.08507644  0.91140732    -0.26400
C2419       C  0.22800628  0.06450468  0.92092607    -0.15600
C2420       C  0.21893900  0.03477539  0.92529498     0.36700
N2421       N  0.23925163  0.01271471  0.93509282    -0.89900
H2422       H  0.18396412  0.00349072  0.92391901     0.17800
H2423       H  0.21305486  0.10781020  0.90772804     0.17800
N2424       N  0.15637418  0.09768920  0.89612426    -0.88900
H2425       H  0.23992456  0.99580196  0.91934759     0.35200
H2426       H  0.23137913  0.00378010  0.95480858     0.40300
H2427       H  0.15001313  0.09139576  0.87488753     0.39900
H2428       H  0.16600567  0.11857783  0.89420877     0.34800
C2429       C  0.07673383  0.78750774  0.93359261    -0.26900
C2430       C  0.08199517  0.76392439  0.95308488    -0.15000
C2431       C  0.09097082  0.77098021  0.98235115     0.35600
C2432       C  0.09456388  0.80039981  0.99111839    -0.26400
C2433       C  0.08752472  0.82363845  0.97231010    -0.15600
C2434       C  0.07901703  0.81717933  0.94312285     0.36700
N2435       N  0.07232942  0.84066834  0.92318197    -0.89900
H2436       H  0.06898640  0.78321696  0.91150166     0.17800
H2437       H  0.10087996  0.80502591  0.01368800     0.17800
N2438       N  0.09442296  0.74840219  0.00417279    -0.88900
H2439       H  0.05078405  0.83780465  0.91591420     0.35200
H2440       H  0.08621816  0.83872145  0.90493199     0.40300
H2441       H  0.11575800  0.74968027  0.01244282     0.39900
H2442       H  0.07989191  0.75276235  0.02148241     0.34800
C2443       C  0.17971724  0.92907033  0.06423929    -0.26900
C2444       C  0.17160099  0.93051290  0.03450324    -0.15000
C2445       C  0.19235563  0.93971503  0.01360715     0.35600
C2446       C  0.22096815  0.94574031  0.02248489    -0.26400
C2447       C  0.23027084  0.94243896  0.05201861    -0.15600
C2448       C  0.20855941  0.93481833  0.07331854     0.36700
N2449       N  0.21417840  0.93299111  0.10416996    -0.89900
H2450       H  0.16361135  0.92273638  0.08063813     0.17800
H2451       H  0.23641933  0.95275657  0.00570801     0.17800
N2452       N  0.18446432  0.94348540  0.98329499    -0.88900
H2453       H  0.22352294  0.95281735  0.11143382     0.35200
H2454       H  0.22754214  0.91474551  0.10817076     0.40300
H2455       H  0.19796078  0.92987022  0.97049212     0.39900
H2456       H  0.18868736  0.96542907  0.97745172     0.34800
C2457       C  0.92689304  0.81263308  0.11571564    -0.26900
C2458       C  0.93680365  0.83170324  0.09339536    -0.15000
C2459       C  0.93340717  0.82261368  0.06369370     0.35600
C2460       C  0.92393418  0.79392208  0.05735041    -0.26400
C2461       C  0.91915995  0.77304943  0.07982964    -0.15600
C2462       C  0.91752988  0.78370885  0.10912689     0.36700
N2463       N  0.90767683  0.76481351  0.13241472    -0.89900
H2464       H  0.92755040  0.81968644  0.13854347     0.17800
H2465       H  0.92164029  0.78794617  0.03442238     0.17800
N2466       N  0.94052108  0.84134858  0.03930605    -0.88900
H2467       H  0.88954864  0.77481333  0.14241137     0.35200
H2468       H  0.92431696  0.76343708  0.14815603     0.40300
H2469       H  0.96285898  0.84642332  0.03994907     0.39900
H2470       H  0.92813991  0.86072061  0.04088621     0.34800
C2471       C  0.03341805  0.94451498  0.20696125    -0.26900
C2472       C  0.02392184  0.91675052  0.19683024    -0.15000
C2473       C  0.02656121  0.89228694  0.21587058     0.35600
C2474       C  0.03481811  0.89661332  0.24533298    -0.26400
C2475       C  0.03955667  0.92512885  0.25688647    -0.15600
C2476       C  0.04214685  0.94877923  0.23647756     0.36700
N2477       N  0.05254717  0.97727463  0.24597109    -0.89900
H2478       H  0.03320475  0.96318813  0.19207610     0.17800
H2479       H  0.03620983  0.87740923  0.25937093     0.17800
N2480       N  0.01974153  0.86302288  0.20587486    -0.88900
H2481       H  0.05277129  0.99220182  0.22843761     0.35200
H2482       H  0.07428002  0.97471693  0.25273800     0.40300
H2483       H  0.00284547  0.85470777  0.21907017     0.39900
H2484       H  0.03823352  0.84977761  0.20900476     0.34800
C2485       C  0.96742330  0.10544587  0.79486989    -0.26900
C2486       C  0.94558611  0.10820834  0.81622608    -0.15000
C2487       C  0.91584991  0.10801245  0.80738144     0.35600
C2488       C  0.90871454  0.10463653  0.77732788    -0.26400
C2489       C  0.93081762  0.10147894  0.75582686    -0.15600
C2490       C  0.96055909  0.10207389  0.76519099     0.36700
N2491       N  0.98417495  0.09876779  0.74450724    -0.89900
H2492       H  0.99031815  0.10582388  0.80124393     0.17800
H2493       H  0.88587631  0.10383938  0.77114132     0.17800
N2494       N  0.89253962  0.11000414  0.82844482    -0.88900
H2495       H  0.99660445  0.08036925  0.75058154     0.35200
H2496       H  0.99756594  0.11749274  0.74592887     0.40300
H2497       H  0.89426615  0.13023135  0.83948389     0.39900
H2498       H  0.89506296  0.09296459  0.84374702     0.34800
C2499       C  0.03779973  0.21165682  0.91711168    -0.26900
C2500       C  0.01726548  0.20195697  0.89615815    -0.15000
C2501       C  0.01064167  0.22075998  0.87240741     0.35600
C2502       C  0.02143421  0.24970587  0.87206383    -0.26400
C2503       C  0.03729336  0.26146941  0.89605261    -0.15600
C2504       C  0.04837630  0.24088125  0.91693228     0.36700
N2505       N  0.06982546  0.24902096  0.93853402    -0.89900
H2506       H  0.04495233  0.19681878  0.93434886     0.17800
H2507       H  0.01556425  0.26283174  0.85329540     0.17800
N2508       N  0.99215229  0.21099087  0.84880573    -0.88900
H2509       H  0.06182942  0.26591365  0.95199597     0.35200
H2510       H  0.08851080  0.25658515  0.92755070     0.40300
H2511       H  0.00380534  0.21304596  0.82906097     0.39900
H2512       H  0.97398354  0.22502809  0.84785489     0.34800
C2513       C  0.76774370  0.00651094  0.08577815    -0.26900
C2514       C  0.78708674  0.98389737  0.09357835    -0.15000
C2515       C  0.77607720  0.95468973  0.09597584     0.35600
C2516       C  0.74610378  0.94901843  0.09096837    -0.26400
C2517       C  0.72663756  0.97188671  0.08314723    -0.15600
C2518       C  0.73815391  0.00092180  0.08034929     0.36700
N2519       N  0.71975403  0.02512355  0.07186899    -0.89900
H2520       H  0.77566486  0.02900101  0.08355241     0.17800
H2521       H  0.73844317  0.92654819  0.09311541     0.17800
N2522       N  0.79454138  0.93046532  0.10401673    -0.88900
H2523       H  0.72067037  0.04122140  0.08842788     0.35200
H2524       H  0.72828593  0.03430801  0.05255839     0.40300
H2525       H  0.80428778  0.93531557  0.12429352     0.39900
H2526       H  0.81093818  0.92821321  0.08806686     0.34800
C2527       C  0.87860829  0.02362552  0.21592708    -0.26900
C2528       C  0.88145766  0.04515029  0.19434571    -0.15000
C2529       C  0.88768767  0.07459410  0.20292862     0.35600
C2530       C  0.89015673  0.08180287  0.23312758    -0.26400
C2531       C  0.88747620  0.05993763  0.25508264    -0.15600
C2532       C  0.88197801  0.03011109  0.24557732     0.36700
N2533       N  0.88002046  0.00517286  0.26497050    -0.89900
H2534       H  0.87434636  0.00085904  0.20962944     0.17800
H2535       H  0.89537381  0.10433834  0.23915938     0.17800
N2536       N  0.89148897  0.09752910  0.18159994    -0.88900
H2537       H  0.89796902  0.00390170  0.27908580     0.35200
H2538       H  0.86024355  0.00546809  0.27637391     0.40300
H2539       H  0.87265642  0.09845491  0.16855542     0.39900
H2540       H  0.90929390  0.09203756  0.16814772     0.34800
C2541       C  0.76290151  0.10799189  0.99481550    -0.26900
C2542       C  0.78400624  0.11224838  0.97287911    -0.15000
C2543       C  0.77463122  0.11621116  0.94338533     0.35600
C2544       C  0.74427972  0.11545865  0.93672088    -0.26400
C2545       C  0.72318274  0.11072350  0.95893328    -0.15600
C2546       C  0.73312141  0.10704889  0.98832490     0.36700
N2547       N  0.71291219  0.10122625  0.01186512    -0.89900
H2548       H  0.76946591  0.10498839  0.01754877     0.17800
H2549       H  0.73744306  0.11775609  0.91407866     0.17800
N2550       N  0.79578239  0.11999153  0.92020272    -0.88900
H2551       H  0.71549679  0.11764077  0.02792436     0.35200
H2552       H  0.71831998  0.08089369  0.02128791     0.40300
H2553       H  0.80572887  0.14058848  0.92329117     0.39900
H2554       H  0.78538705  0.12089009  0.89971651     0.34800
C2555       C  0.89631249  0.21056068  0.05501122    -0.26900
C2556       C  0.87218124  0.20136362  0.03817002    -0.15000
C2557       C  0.84974958  0.22191673  0.03222365     0.35600
C2558       C  0.85404959  0.25190159  0.03921367    -0.26400
C2559       C  0.88058338  0.26205945  0.05161547    -0.15600
C2560       C  0.90036895  0.24052578  0.06225392     0.36700
N2561       N  0.92552547  0.24921578  0.07902796    -0.89900
H2562       H  0.91292441  0.19472342  0.06135390     0.17800
H2563       H  0.83649703  0.26695154  0.03429942     0.17800
N2564       N  0.82289046  0.21242836  0.01859832    -0.88900
H2565       H  0.94428728  0.24201836  0.06786639     0.35200
H2566       H  0.92465366  0.23830502  0.09928168     0.40300
H2567       H  0.80878906  0.23032144  0.01531418     0.39900
H2568       H  0.81230604  0.19823559  0.03332791     0.34800
loop_ 
_geom_bond_atom_site_label_1 
_geom_bond_atom_site_label_2 
_geom_bond_distance 
_geom_bond_site_symmetry_2 
_ccdc_geom_bond_type 
In1           O3   2.232       .  S
In1           O4   2.284       .  S
In1          O12   2.231       .  S
In1           O6   2.278   1_554  S
In1           O8   2.248       .  S
In1           O9   2.261   1_554  S
In1          O10   2.260       .  S
In1          O13   2.254   1_554  S
C2            O8   1.260       .  A
C2           O10   1.260       .  A
C2         C2556   1.486       .  S
O3           C11   1.256       .  A
O4           C11   1.261       .  A
C5           O12   1.261   1_556  A
C5            O6   1.261       .  A
C5         C2542   1.489       .  S
C7            O9   1.260       .  A
C7           O13   1.258       .  A
C7           C33   1.469       .  S
C11          C20   1.468       .  S
In14         O16   2.254   1_545  S
In14         O17   2.267   1_545  S
In14         O25   2.287   1_545  S
In14         O19   2.232       .  S
In14         O21   2.225       .  S
In14         O22   2.273       .  S
In14         O23   2.274       .  S
In14         O26   2.221       .  S
C15          O21   1.260       .  A
C15          O23   1.259       .  A
C15        C2528   1.478       .  S
O16          C24   1.258       .  A
O17          C24   1.261       .  A
C18          O25   1.261       .  A
C18          O19   1.258   1_565  A
C18        C2514   1.488       .  S
C20          O22   1.265       .  A
C20          O26   1.259       .  A
C24          C46   1.470       .  S
In27         O29   2.239   1_655  S
In27         O30   2.270       .  S
In27         O38   2.278   1_655  S
In27         O32   2.232       .  S
In27         O34   2.270       .  S
In27         O35   2.256       .  S
In27         O36   2.227       .  S
In27         O39   2.258       .  S
C28          O34   1.261       .  A
C28          O36   1.260       .  A
C28        C2486   1.478       .  S
O29          C37   1.257       .  A
O30          C37   1.262   1_655  A
C31          O38   1.261       .  A
C31          O32   1.258   1_455  A
C31        C2500   1.488       .  S
C33          O35   1.259       .  A
C33          O39   1.261       .  A
C37          C76   1.466       .  S
In40         O42   2.268   1_655  S
In40         O43   2.251   1_655  S
In40         O51   2.238       .  S
In40         O45   2.268       .  S
In40         O47   2.250   1_655  S
In40         O48   2.257       .  S
In40         O49   2.272   1_655  S
In40         O52   2.256       .  S
C41          O47   1.259       .  A
C41          O49   1.262       .  A
C41        C2472   1.492       .  S
O42          C50   1.260       .  A
O43          C50   1.257       .  A
C44          O51   1.257       .  A
C44          O45   1.260       .  A
C44        C2458   1.489       .  S
C46          O48   1.259       .  A
C46          O52   1.260       .  A
C50          C59   1.469       .  S
In53         O55   2.234   1_554  S
In53         O56   2.266   1_554  S
In53         O64   2.266   1_554  S
In53         O58   2.251       .  S
In53         O60   2.253       .  S
In53         O61   2.260       .  S
In53         O62   2.230   1_554  S
In53         O65   2.263       .  S
C54          O60   1.260       .  A
C54          O62   1.259   1_554  A
C54        C2444   1.476       .  S
O55          C63   1.260       .  A
O56          C63   1.262       .  A
C57          O64   1.260       .  A
C57          O58   1.260   1_556  A
C57        C2433   1.482       .  S
C59          O61   1.259       .  A
C59          O65   1.257       .  A
C63          C72   1.467       .  S
In66         O68   2.238       .  S
In66         O69   2.260       .  S
In66         O77   2.248   1_545  S
In66         O71   2.271   1_545  S
In66         O73   2.236       .  S
In66         O74   2.272       .  S
In66         O75   2.281       .  S
In66         O78   2.237   1_545  S
C67          O73   1.260       .  A
C67          O75   1.260       .  A
C67        C2416   1.489       .  S
O68          C76   1.261       .  A
O69          C76   1.261       .  A
C70          O77   1.257       .  A
C70          O71   1.260       .  A
C70        C2405   1.488       .  S
C72          O74   1.261   1_565  A
C72          O78   1.257       .  A
C79          C80   1.549       .  S
C79          C85   1.540       .  S
C79          C83   1.541       .  S
C79        C2346   1.545       .  S
C80          H87   1.085       .  S
C80          C81   1.364       .  D
C81          C82   1.533       .  S
C81        C2360   1.486       .  S
C82          C86   1.530       .  S
C82          C84   1.540       .  S
C82          H88   1.107       .  S
C83          H89   1.085       .  S
C83          C84   1.374       .  D
C84        C2388   1.487       .  S
C85          H90   1.085       .  S
C85          C86   1.360       .  D
C86        C2374   1.471       .  S
C91          C92   1.536       .  S
C91          C97   1.542       .  S
C91          C95   1.539       .  S
C91        C2304   1.541       .  S
C92          H99   1.085       .  S
C92          C93   1.373       .  D
C93          C94   1.545       .  S
C93        C2391   1.489       .  S
C94          C98   1.533       .  S
C94          C96   1.540       .  S
C94         H100   1.110       .  S
C95         H101   1.081       .  S
C95          C96   1.363       .  D
C96        C2318   1.489       .  S
C97         H102   1.085       .  S
C97          C98   1.362       .  D
C98        C2332   1.484       .  S
C103        C104   1.544       .  S
C103        C109   1.545       .  S
C103        C107   1.536       .  S
C103       C2262   1.543       .  S
C104        H111   1.080       .  S
C104        C105   1.369       .  D
C105        C106   1.543       .  S
C105       C2276   1.501       .  S
C106        C110   1.528       .  S
C106        C108   1.541       .  S
C106        H112   1.107       .  S
C107        H113   1.085       .  S
C107        C108   1.371       .  D
C108       C2290   1.491       .  S
C109        H114   1.084       .  S
C109        C110   1.362       .  D
C110       C2335   1.482       .  S
C115        C116   1.542       .  S
C115        C121   1.544       .  S
C115        C119   1.544       .  S
C115       C2220   1.549       .  S
C116        H123   1.086       .  S
C116        C117   1.375       .  D
C117        C118   1.542       .  S
C117       C2293   1.488       .  S
C118        C122   1.524       .  S
C118        C120   1.538       .  S
C118        H124   1.108       .  S
C119        H125   1.082       .  S
C119        C120   1.367       .  D
C120       C2234   1.492       .  S
C121        H126   1.085       .  S
C121        C122   1.362       .  D
C122       C2248   1.477       .  S
C127        C128   1.539       .  S
C127        C133   1.542       .  S
C127        C131   1.539       .  S
C127       C2178   1.541       .  S
C128        H135   1.084       .  S
C128        C129   1.364       .  D
C129        C130   1.539       .  S
C129       C2192   1.484       .  S
C130        C134   1.536       .  S
C130        C132   1.545       .  S
C130        H136   1.109       .  S
C131        H137   1.086       .  S
C131        C132   1.373       .  D
C132       C2206   1.491       .  S
C133        H138   1.083       .  S
C133        C134   1.361       .  D
C134       C2251   1.486       .  S
C139        C140   1.544       .  S
C139        C145   1.538       .  S
C139        C143   1.547       .  S
C139       C2150   1.546       .  S
C140        H147   1.085       .  S
C140        C141   1.378       .  D
C141        C142   1.543       .  S
C141       C2209   1.495       .  S
C142        C146   1.532       .  S
C142        C144   1.529       .  S
C142        H148   1.110       .  S
C143        H149   1.082       .  S
C143        C144   1.366       .  D
C144       C2164   1.481       .  S
C145        H150   1.086       .  S
C145        C146   1.353       .  D
C146       C2377   1.472       .  S
C151        C152   1.549       .  S
C151        C157   1.530       .  S
C151        C155   1.542       .  S
C151       C2111   1.535       .  S
C152        H159   1.084       .  S
C152        C153   1.381       .  D
C153        C154   1.547       .  S
C153       C2136   1.484       .  S
C154        C158   1.531       .  S
C154        C156   1.529       .  S
C154        H160   1.111       .  S
C155        H161   1.087       .  S
C155        C156   1.358       .  D
C156       C2237   1.479       .  S
C157        H162   1.088       .  S
C157        C158   1.359       .  D
C158       C2122   1.469       .  S
C163        C164   1.534       .  S
C163        C169   1.529       .  S
C163        C167   1.556       .  S
C163       C2080   1.536       .  S
C164        H171   1.087       .  S
C164        C165   1.353       .  D
C165        C166   1.540       .  S
C165       C2195   1.478       .  S
C166        C170   1.538       .  S
C166        C168   1.545       .  S
C166        H172   1.111       .  S
C167        H173   1.084       .  S
C167        C168   1.383       .  D
C168       C2139   1.494       .  S
C169        H174   1.086       .  S
C169        C170   1.361       .  D
C170       C2094   1.485       .  S
C175        C176   1.536       .  S
C175        C181   1.530       .  S
C175        C179   1.554       .  S
C175       C2038   1.543       .  S
C176        H183   1.086       .  S
C176        C177   1.373       .  D
C177        C178   1.547       .  S
C177       C2066   1.487       .  S
C178        C182   1.536       .  S
C178        C180   1.530       .  S
C178        H184   1.111       .  S
C179        H185   1.081       .  S
C179        C180   1.366       .  D
C180       C2321   1.481       .  S
C181        H186   1.088       .  S
C181        C182   1.359       .  D
C182       C2052   1.477       .  S
C187        C188   1.544       .  S
C187        C193   1.521       .  S
C187        C191   1.548       .  S
C187       C2024   1.541       .  S
C188        H195   1.086       .  S
C188        C189   1.370       .  D
C189        C190   1.540       .  S
C189       C2279   1.494       .  S
C190        C194   1.537       .  S
C190        C192   1.545       .  S
C190        H196   1.107       .  S
C191        H197   1.084       .  S
C191        C192   1.379       .  D
C192       C2069   1.488       .  S
C193        H198   1.088       .  S
C193        C194   1.353       .  D
C194       C2125   1.475       .  S
C199        C200   1.552       .  S
C199        C205   1.532       .  S
C199        C203   1.537       .  S
C199       C1996   1.540       .  S
C200        H207   1.080       .  S
C200        C201   1.364       .  D
C201        C202   1.530       .  S
C201       C2363   1.476       .  S
C202        C206   1.534       .  S
C202        C204   1.549       .  S
C202        H208   1.111       .  S
C203        H209   1.085       .  S
C203        C204   1.373       .  D
C204       C2010   1.489       .  S
C205        H210   1.088       .  S
C205        C206   1.357       .  D
C206       C2055   1.478       .  S
C211        C212   1.552       .  S
C211        C217   1.536       .  S
C211        C215   1.535       .  S
C211       C1982   1.544       .  S
C212        H219   1.081       .  S
C212        C213   1.380       .  D
C213        C214   1.541       .  S
C213       C2013   1.488       .  S
C214        C218   1.527       .  S
C214        C216   1.545       .  S
C214        H220   1.102       .  S
C215        H221   1.085       .  S
C215        C216   1.366       .  D
C216       C2167   1.503       .  S
C217        H222   1.087       .  S
C217        C218   1.360       .  D
C218       C2097   1.486       .  S
In223       O225   2.266       .  S
In223       O226   2.259       .  S
In223       O234   2.283       .  S
In223       O228   2.229       .  S
In223       O230   2.244       .  S
In223       O231   2.256       .  S
In223       O232   2.281       .  S
In223       O235   2.266       .  S
C224        O230   1.262       .  A
C224        O232   1.262       .  A
C224       C2027   1.495       .  S
O225        C233   1.257       .  A
O226        C233   1.256       .  A
C227        O234   1.261       .  A
C227        O228   1.262       .  A
C227       C1968   1.493       .  S
C229        O231   1.259       .  A
C229        O235   1.259       .  A
C229        C259   1.470       .  S
C233        C242   1.468       .  S
In236       O238   2.262       .  S
In236       O239   2.259       .  S
In236       O247   2.235       .  S
In236       O241   2.263       .  S
In236       O243   2.226       .  S
In236       O244   2.259       .  S
In236       O245   2.276       .  S
In236       O248   2.265       .  S
C237        O243   1.261       .  A
C237        O245   1.261       .  A
C237       C2108   1.487       .  S
O238        C246   1.258       .  A
O239        C246   1.257       .  A
C240        O247   1.261       .  A
C240        O241   1.260       .  A
C240       C1954   1.489       .  S
C242        O244   1.257       .  A
C242        O248   1.257       .  A
C246        C268   1.467       .  S
In249       O251   2.266       .  S
In249       O252   2.251       .  S
In249       O260   2.291   1_554  S
In249       O254   2.240       .  S
In249       O256   2.253       .  S
In249       O257   2.280   1_554  S
In249       O258   2.254       .  S
In249       O261   2.275   1_554  S
C250        O256   1.261       .  A
C250        O258   1.262       .  A
C250       C1940   1.488       .  S
O251        C259   1.261       .  A
O252        C259   1.258       .  A
C253        O260   1.262       .  A
C253        O254   1.259   1_556  A
C253       C1926   1.494       .  S
C255        O257   1.259       .  A
C255        O261   1.259       .  A
C255        C298   1.481       .  S
In262       O264   2.255       .  S
In262       O265   2.268       .  S
In262       O273   2.230   1_556  S
In262       O267   2.287       .  S
In262       O269   2.254   1_556  S
In262       O270   2.254   1_556  S
In262       O271   2.250   1_556  S
In262       O274   2.253   1_556  S
C263        O269   1.261       .  A
C263        O271   1.258       .  A
C263       C1915   1.487       .  S
O264        C272   1.259       .  A
O265        C272   1.259       .  A
C266        O273   1.259   1_556  A
C266        O267   1.263       .  A
C266       C1901   1.492       .  S
C268        O270   1.260       .  A
C268        O274   1.259       .  A
C272        C281   1.471       .  S
In275       O277   2.266       .  S
In275       O278   2.255       .  S
In275       O286   2.259       .  S
In275       O280   2.257       .  S
In275       O282   2.274       .  S
In275       O283   2.276       .  S
In275       O284   2.260       .  S
In275       O287   2.258       .  S
C276        O282   1.261       .  A
C276        O284   1.258       .  A
C276       C1887   1.492       .  S
O277        C285   1.261       .  A
O278        C285   1.258       .  A
C279        O286   1.261       .  A
C279        O280   1.260       .  A
C279       C2153   1.490       .  S
C281        O283   1.258       .  A
C281        O287   1.255       .  A
C285        C294   1.472       .  S
In288       O290   2.274       .  S
In288       O291   2.281       .  S
In288       O299   2.269       .  S
In288       O293   2.237       .  S
In288       O295   2.243       .  S
In288       O296   2.261       .  S
In288       O297   2.269       .  S
In288       O300   2.260       .  S
C289        O295   1.259       .  A
C289        O297   1.262       .  A
C289       C1870   1.488       .  S
O290        C298   1.258       .  A
O291        C298   1.260       .  A
C292        O299   1.263       .  A
C292        O293   1.259       .  A
C292       C2349   1.489       .  S
C294        O296   1.262       .  A
C294        O300   1.259       .  A
C301        C302   1.535       .  S
C301        C307   1.532       .  S
C301        C305   1.550       .  S
C301       C1814   1.542       .  S
C302        H309   1.086       .  S
C302        C303   1.371       .  D
C303        C304   1.548       .  S
C303       C1859   1.486       .  S
C304        C308   1.539       .  S
C304        C306   1.536       .  S
C304        H310   1.111       .  S
C305        H311   1.081       .  S
C305        C306   1.365       .  D
C306       C1831   1.481   1_455  S
C307        H312   1.087       .  S
C307        C308   1.361       .  D
C308       C1845   1.484   1_455  S
C313        C314   1.544       .  S
C313        C319   1.540       .  S
C313        C317   1.535       .  S
C313       C1912   1.536       .  S
C314        H321   1.084       .  S
C314        C315   1.363       .  D
C315        C316   1.539       .  S
C315       C1786   1.485       .  S
C316        C320   1.532       .  S
C316        C318   1.542       .  S
C316        H322   1.109       .  S
C317        H323   1.086       .  S
C317        C318   1.369       .  D
C318       C1856   1.483       .  S
C319        H324   1.085       .  S
C319        C320   1.363       .  D
C320       C1800   1.483       .  S
C325        C326   1.537       .  S
C325        C331   1.538       .  S
C325        C329   1.547       .  S
C325       C1884   1.543       .  S
C326        H333   1.085       .  S
C326        C327   1.374       .  D
C327        C328   1.544       .  S
C327       C1775   1.496       .  S
C328        C332   1.534       .  S
C328        C330   1.534       .  S
C328        H334   1.110       .  S
C329        H335   1.083       .  S
C329        C330   1.364       .  D
C330       C1758   1.487       .  S
C331        H336   1.085       .  S
C331        C332   1.364       .  D
C332       C1803   1.478       .  S
C337        C338   1.549       .  S
C337        C343   1.536       .  S
C337        C341   1.536       .  S
C337       C1716   1.542       .  S
C338        H345   1.083       .  S
C338        C339   1.363       .  D
C339        C340   1.527       .  S
C339       C1730   1.475       .  S
C340        C344   1.536       .  S
C340        C342   1.547       .  S
C340        H346   1.111       .  S
C341        H347   1.085       .  S
C341        C342   1.374       .  D
C342       C1744   1.491       .  S
C343        H348   1.087       .  S
C343        C344   1.363       .  D
C344       C1842   1.481       .  S
C349        C350   1.536       .  S
C349        C355   1.539       .  S
C349        C353   1.544       .  S
C349       C2559   1.541       .  S
C350        H357   1.086       .  S
C350        C351   1.373       .  D
C351        C352   1.548       .  S
C351       C1747   1.494       .  S
C352        C356   1.528       .  S
C352        C354   1.539       .  S
C352        H358   1.107       .  S
C353        H359   1.077       .  S
C353        C354   1.366       .  D
C354       C1688   1.496       .  S
C355        H360   1.087       .  S
C355        C356   1.361       .  D
C356       C1702   1.476       .  S
C361        C362   1.545       .  S
C361        C367   1.533       .  S
C361        C365   1.541       .  S
C361       C2503   1.545       .  S
C362        H369   1.078       .  S
C362        C363   1.363       .  D
C363        C364   1.536       .  S
C363       C1674   1.489   1_455  S
C364        C368   1.530       .  S
C364        C366   1.546       .  S
C364        H370   1.107       .  S
C365        H371   1.085       .  S
C365        C366   1.377       .  D
C366       C1772   1.491       .  S
C367        H372   1.087       .  S
C367        C368   1.357       .  D
C368       C1705   1.477   1_455  S
C373        C374   1.553       .  S
C373        C379   1.531       .  S
C373        C377   1.542       .  S
C373       C1929   1.540       .  S
C374        H381   1.084       .  S
C374        C375   1.382       .  D
C375        C376   1.547       .  S
C375       C1646   1.490       .  S
C376        C380   1.532       .  S
C376        C378   1.527       .  S
C376        H382   1.111       .  S
C377        H383   1.087       .  S
C377        C378   1.361       .  D
C378       C1691   1.482       .  S
C379        H384   1.088       .  S
C379        C380   1.358       .  D
C380       C1660   1.470       .  S
C385        C386   1.551       .  S
C385        C391   1.532       .  S
C385        C389   1.543       .  S
C385       C1618   1.541       .  S
C386        H393   1.081       .  S
C386        C387   1.364       .  D
C387        C388   1.529       .  S
C387       C1677   1.480       .  S
C388        C392   1.538       .  S
C388        C390   1.550       .  S
C388        H394   1.110       .  S
C389        H395   1.085       .  S
C389        C390   1.377       .  D
C390       C1649   1.500       .  S
C391        H396   1.087       .  S
C391        C392   1.354       .  D
C392       C1632   1.479       .  S
C397        C398   1.531       .  S
C397        C403   1.535       .  S
C397        C401   1.549       .  S
C397       C1971   1.536       .  S
C398        H405   1.086       .  S
C398        C399   1.362       .  D
C399        C400   1.538       .  S
C399       C1733   1.492       .  S
C400        C404   1.522       .  S
C400        C402   1.545       .  S
C400        H406   1.108       .  S
C401        H407   1.084       .  S
C401        C402   1.386       .  D
C402       C1604   1.485       .  S
C403        H408   1.088       .  S
C403        C404   1.353       .  D
C404       C1663   1.466       .  S
C409        C410   1.536       .  S
C409        C415   1.546       .  S
C409        C413   1.544       .  S
C409       C2461   1.539       .  S
C410        H417   1.086       .  S
C410        C411   1.371       .  D
C411        C412   1.542       .  S
C411       C1607   1.486       .  S
C412        C416   1.530       .  S
C412        C414   1.537       .  S
C412        H418   1.110       .  S
C413        H419   1.084       .  S
C413        C414   1.364       .  D
C414       C1828   1.491       .  S
C415        H420   1.084       .  S
C415        C416   1.363       .  D
C416       C1590   1.472       .  S
C421        C422   1.545       .  S
C421        C427   1.527       .  S
C421        C425   1.540       .  S
C421       C1562   1.543       .  S
C422        H429   1.084       .  S
C422        C423   1.381       .  D
C423        C424   1.557       .  S
C423       C1576   1.496       .  S
C424        C428   1.539       .  S
C424        C426   1.538       .  S
C424        H430   1.110       .  S
C425        H431   1.082       .  S
C425        C426   1.362       .  D
C426       C1761   1.487       .  S
C427        H432   1.088       .  S
C427        C428   1.356       .  D
C428       C1635   1.481       .  S
C433        C434   1.538       .  S
C433        C439   1.526       .  S
C433        C437   1.552       .  S
C433       C2430   1.535       .  S
C434        H441   1.086       .  S
C434        C435   1.363       .  D
C435        C436   1.532       .  S
C435       C1789   1.475       .  S
C436        C440   1.529       .  S
C436        C438   1.544       .  S
C436        H442   1.111       .  S
C437        H443   1.084       .  S
C437        C438   1.383       .  D
C438       C1579   1.489       .  S
C439        H444   1.088       .  S
C439        C440   1.351       .  D
C440       C1593   1.468       .  S
C445        C446   1.552       .  S
C445        C451   1.528       .  S
C445        C449   1.541       .  S
C445       C1509   1.547       .  S
C446        H453   1.080       .  S
C446        C447   1.364       .  D
C447        C448   1.535       .  S
C447       C1520   1.484       .  S
C448        C452   1.538       .  S
C448        C450   1.549       .  S
C448        H454   1.111       .  S
C449        H455   1.085       .  S
C449        C450   1.377       .  D
C450       C1548   1.493       .  S
C451        H456   1.088       .  S
C451        C452   1.358       .  D
C452       C1534   1.477       .  S
C457        C458   1.532       .  S
C457        C463   1.529       .  S
C457        C461   1.549       .  S
C457       C1943   1.542       .  S
C458        H465   1.086       .  S
C458        C459   1.374       .  D
C459        C460   1.556       .  S
C459       C1551   1.497       .  S
C460        C464   1.548       .  S
C460        C462   1.534       .  S
C460        H466   1.109       .  S
C461        H467   1.082       .  S
C461        C462   1.362       .  D
C462       C1481   1.482       .  S
C463        H468   1.088       .  S
C463        C464   1.361       .  D
C464       C1495   1.489       .  S
C469        C470   1.538       .  S
C469        C475   1.534       .  S
C469        C473   1.553       .  S
C469       C1436   1.542       .  S
C470        H477   1.086       .  S
C470        C471   1.375       .  D
C471        C472   1.544       .  S
C471       C1464   1.486       .  S
C472        C476   1.529       .  S
C472        C474   1.526       .  S
C472        H478   1.110       .  S
C473        H479   1.082       .  S
C473        C474   1.362       .  D
C474       C1450   1.476       .  S
C475        H480   1.087       .  S
C475        C476   1.361       .  D
C476       C1537   1.472       .  S
C481        C482   1.552       .  S
C481        C487   1.536       .  S
C481        C485   1.539       .  S
C481       C1873   1.541       .  S
C482        H489   1.082       .  S
C482        C483   1.365       .  D
C483        C484   1.528       .  S
C483       C1408   1.478       .  S
C484        C488   1.532       .  S
C484        C486   1.546       .  S
C484        H490   1.111       .  S
C485        H491   1.085       .  S
C485        C486   1.374       .  D
C486       C1422   1.490       .  S
C487        H492   1.087       .  S
C487        C488   1.359       .  D
C488       C1492   1.482       .  S
C493        C494   1.555       .  S
C493        C499   1.534       .  S
C493        C497   1.533       .  S
C493       C2419   1.537       .  S
C494        H501   1.083       .  S
C494        C495   1.380       .  D
C495        C496   1.540       .  S
C495       C1425   1.492       .  S
C496        C500   1.532       .  S
C496        C498   1.534       .  S
C496        H502   1.109       .  S
C497        H503   1.087       .  S
C497        C498   1.355       .  D
C498       C1380   1.475       .  S
C499        H504   1.087       .  S
C499        C500   1.365       .  D
C500       C1394   1.482       .  S
C505        C506   1.538       .  S
C505        C511   1.534       .  S
C505        C509   1.552       .  S
C505       C2447   1.540       .  S
C506        H513   1.087       .  S
C506        C507   1.354       .  D
C507        C508   1.534       .  S
C507       C1366   1.473       .  S
C508        C512   1.532       .  S
C508        C510   1.537       .  S
C508        H514   1.110       .  S
C509        H515   1.074       .  S
C509        C510   1.372       .  D
C510       C1467   1.480       .  S
C511        H516   1.086       .  S
C511        C512   1.366       .  D
C512       C1397   1.483   1_565  S
C517        C518   1.558       .  S
C517        C523   1.531       .  S
C517        C521   1.535       .  S
C517       C1324   1.544       .  S
C518        H525   1.083       .  S
C518        C519   1.384       .  D
C519        C520   1.544       .  S
C519       C1338   1.496       .  S
C520        C524   1.536       .  S
C520        C522   1.534       .  S
C520        H526   1.110       .  S
C521        H527   1.087   1_565  S
C521        C522   1.358       .  D
C522       C1383   1.476   1_565  S
C523        H528   1.087       .  S
C523        C524   1.363       .  D
C524       C1352   1.487       .  S
C529        C530   1.539       .  S
C529        C535   1.535       .  S
C529        C533   1.557       .  S
C529       C1898   1.546       .  S
C530        H537   1.087       .  S
C530        C531   1.359       .  D
C531        C532   1.531       .  S
C531       C1369   1.474       .  S
C532        C536   1.531       .  S
C532        C534   1.544       .  S
C532        H538   1.110       .  S
C533        H539   1.081       .  S
C533        C534   1.380       .  D
C534       C1341   1.495       .  S
C535        H540   1.087       .  S
C535        C536   1.362       .  D
C536       C1310   1.481       .  S
C541        C542   1.555       .  S
C541        C547   1.533       .  S
C541        C545   1.530       .  S
C541       C1957   1.541       .  S
C542        H549   1.081       .  S
C542        C543   1.381       .  D
C543        C544   1.544       .  S
C543       C1296   1.484       .  S
C544        C548   1.532       .  S
C544        C546   1.541       .  S
C544        H550   1.109       .  S
C545        H551   1.087       .  S
C545        C546   1.362       .  D
C546       C1453   1.492       .  S
C547        H552   1.087       .  S
C547        C548   1.357       .  D
C548       C1313   1.481       .  S
C553        C554   1.536       .  S
C553        C559   1.535       .  S
C553        C557   1.546       .  S
C553       C2517   1.537       .  S
C554        H561   1.086   1_565  S
C554        C555   1.362       .  D
C555        C556   1.536       .  S
C555       C1523   1.484   1_565  S
C556        C560   1.536       .  S
C556        C558   1.546       .  S
C556        H562   1.111       .  S
C557        H563   1.083       .  S
C557        C558   1.373       .  D
C558       C1299   1.485       .  S
C559        H564   1.086       .  S
C559        C560   1.365       .  D
C560       C1282   1.485       .  S
C565        C566   1.527       .  S
C565        C571   1.532       .  S
C565        C569   1.555       .  S
C565       C1257   1.535       .  S
C566        H573   1.087       .  S
C566        C567   1.353       .  D
C567        C568   1.532       .  S
C567       C1411   1.470       .  S
C568        C572   1.533       .  S
C568        C570   1.544       .  S
C568        H574   1.111       .  S
C569        H575   1.083       .  S
C569        C570   1.379       .  D
C570       C1271   1.482       .  S
C571        H576   1.086       .  S
C571        C572   1.362       .  D
C572       C1355   1.483       .  S
C577        C578   1.549       .  S
C577        C583   1.531       .  S
C577        C581   1.537       .  S
C577       C2545   1.534       .  S
C578        H585   1.084       .  S
C578        C579   1.377       .  D
C579        C580   1.548       .  S
C579       C1268   1.485       .  S
C580        C584   1.534       .  S
C580        C582   1.538       .  S
C580        H586   1.110       .  S
C581        H587   1.086       .  S
C581        C582   1.364       .  D
C582       C1478   1.489       .  S
C583        H588   1.088       .  S
C583        C584   1.356       .  D
C584       C1285   1.483       .  S
In589       O591   2.265       .  S
In589       O592   2.261       .  S
In589       O600   2.216       .  S
In589       O594   2.276       .  S
In589       O596   2.241       .  S
In589       O597   2.272       .  S
In589       O598   2.250       .  S
In589       O601   2.244       .  S
C590        O596   1.260       .  A
C590        O598   1.262       .  A
C590       C1999   1.486       .  S
O591        C599   1.258       .  A
O592        C599   1.257       .  A
C593        O600   1.260       .  A
C593        O594   1.263       .  A
C593       C1254   1.484       .  S
C595        O597   1.261       .  A
C595        O601   1.257       .  A
C595        C638   1.469       .  S
C599        C608   1.469       .  S
In602       O604   2.264       .  S
In602       O605   2.282       .  S
In602       O613   2.283       .  S
In602       O607   2.249       .  S
In602       O609   2.279       .  S
In602       O610   2.266       .  S
In602       O611   2.229       .  S
In602       O614   2.266       .  S
C603        O609   1.265       .  A
C603        O611   1.259       .  A
C603       C2041   1.489       .  S
O604        C612   1.258       .  A
O605        C612   1.257       .  A
C606        O613   1.264       .  A
C606        O607   1.257       .  A
C606       C1240   1.494       .  S
C608        O610   1.257       .  A
C608        O614   1.256       .  A
C612        C621   1.475       .  S
In615       O617   2.265       .  S
In615       O618   2.264   1_545  S
In615       O626   2.209       .  S
In615       O620   2.289   1_545  S
In615       O622   2.258       .  S
In615       O623   2.279       .  S
In615       O624   2.262       .  S
In615       O627   2.249       .  S
C616        O622   1.261       .  A
C616        O624   1.262       .  A
C616       C1506   1.493       .  S
O617        C625   1.259   1_545  A
O618        C625   1.258       .  A
C619        O626   1.257   1_565  A
C619        O620   1.262       .  A
C619       C1226   1.480       .  S
C621        O623   1.264       .  A
C621        O627   1.259       .  A
C625        C664   1.472       .  S
In628       O630   2.243       .  S
In628       O631   2.267       .  S
In628       O639   2.284   1_545  S
In628       O633   2.254       .  S
In628       O635   2.279       .  S
In628       O636   2.278       .  S
In628       O637   2.267       .  S
In628       O640   2.251   1_545  S
C629        O635   1.258       .  A
C629        O637   1.256       .  A
C629       C1215   1.493       .  S
O630        C638   1.260       .  A
O631        C638   1.262       .  A
C632        O639   1.261   1_545  A
C632        O633   1.262       .  A
C632       C1327   1.500   1_545  S
C634        O636   1.259   1_565  A
C634        O640   1.259       .  A
C634        C651   1.472       .  S
In641       O643   2.243       .  S
In641       O644   2.279       .  S
In641       O652   2.243       .  S
In641       O646   2.256       .  S
In641       O648   2.225       .  S
In641       O649   2.266       .  S
In641       O650   2.299       .  S
In641       O653   2.246       .  S
C642        O648   1.256       .  A
C642        O650   1.259       .  A
C642       C1201   1.488       .  S
O643        C651   1.257       .  A
O644        C651   1.263       .  A
C645        O652   1.260       .  A
C645        O646   1.261       .  A
C645       C2181   1.484       .  S
C647        O649   1.263       .  A
C647        O653   1.260       .  A
C647        C660   1.472       .  S
In654       O656   2.263       .  S
In654       O657   2.266       .  S
In654       O665   2.269       .  S
In654       O659   2.248       .  S
In654       O661   2.260       .  S
In654       O662   2.274       .  S
In654       O663   2.272       .  S
In654       O666   2.261       .  S
C655        O661   1.261       .  A
C655        O663   1.263       .  A
C655       C2223   1.495       .  S
O656        C664   1.258       .  A
O657        C664   1.259       .  A
C658        O665   1.262       .  A
C658        O659   1.259       .  A
C658       C1439   1.492       .  S
C660        O662   1.257       .  A
C660        O666   1.257       .  A
C667        C668   1.539       .  S
C667        C673   1.531       .  S
C667        C671   1.557       .  S
C667       C1142   1.537       .  S
C668        H675   1.087   1_455  S
C668        C669   1.356       .  D
C669        C670   1.531       .  S
C669       C1159   1.473   1_455  S
C670        C674   1.531       .  S
C670        C672   1.548       .  S
C670        H676   1.110       .  S
C671        H677   1.083       .  S
C671        C672   1.384       .  D
C672       C1184   1.500       .  S
C673        H678   1.087       .  S
C673        C674   1.359       .  D
C674       C1170   1.481       .  S
C679        C680   1.550       .  S
C679        C685   1.535       .  S
C679        C683   1.546       .  S
C679       C1212   1.549       .  S
C680        H687   1.085       .  S
C680        C681   1.380       .  D
C681        C682   1.546       .  S
C681       C1187   1.508       .  S
C682        C686   1.533       .  S
C682        C684   1.537       .  S
C682        H688   1.105       .  S
C683        H689   1.084       .  S
C683        C684   1.358       .  D
C684       C1114   1.472       .  S
C685        H690   1.084       .  S
C685        C686   1.363       .  D
C686       C1128   1.489       .  S
C691        C692   1.533       .  S
C691        C697   1.534       .  S
C691        C695   1.547       .  S
C691       C1198   1.537       .  S
C692        H699   1.086       .  S
C692        C693   1.361       .  D
C693        C694   1.536       .  S
C693       C1086   1.487       .  S
C694        C698   1.530       .  S
C694        C696   1.546       .  S
C694        H700   1.110       .  S
C695        H701   1.084       .  S
C695        C696   1.380       .  D
C696       C1103   1.487       .  S
C697        H702   1.086       .  S
C697        C698   1.362       .  D
C698       C1131   1.483   1_565  S
C703        C704   1.544       .  S
C703        C709   1.536       .  S
C703        C707   1.527       .  S
C703       C1044   1.533       .  S
C704        H711   1.084       .  S
C704        C705   1.381       .  D
C705        C706   1.555       .  S
C705       C1072   1.492       .  S
C706        C710   1.532       .  S
C706        C708   1.545       .  S
C706        H712   1.108       .  S
C707        H713   1.084       .  S
C707        C708   1.359       .  D
C708       C1058   1.496       .  S
C709        H714   1.087       .  S
C709        C710   1.360       .  D
C710       C1173   1.485       .  S
C715        C716   1.526       .  S
C715        C721   1.529       .  S
C715        C719   1.556       .  S
C715       C2531   1.538       .  S
C716        H723   1.084       .  S
C716        C717   1.362       .  D
C717        C718   1.540       .  S
C717       C1016   1.491       .  S
C718        C722   1.524       .  S
C718        C720   1.547       .  S
C718        H724   1.106       .  S
C719        H725   1.084       .  S
C719        C720   1.386       .  D
C720       C1075   1.491       .  S
C721        H726   1.088       .  S
C721        C722   1.353       .  D
C722       C1030   1.471       .  S
C727        C728   1.538       .  S
C727        C733   1.536       .  S
C727        C731   1.547       .  S
C727       C2475   1.544       .  S
C728        H735   1.086       .  S
C728        C729   1.372       .  D
C729        C730   1.543       .  S
C729       C1100   1.483       .  S
C730        C734   1.528       .  S
C730        C732   1.545       .  S
C730        H736   1.108       .  S
C731        H737   1.082       .  S
C731        C732   1.370       .  D
C732       C1002   1.501   1_455  S
C733        H738   1.086       .  S
C733        C734   1.358       .  D
C734       C1033   1.473   1_455  S
C739        C740   1.535       .  S
C739        C745   1.541       .  S
C739        C743   1.551       .  S
C739        C960   1.543       .  S
C740        H747   1.085       .  S
C740        C741   1.372       .  D
C741        C742   1.550       .  S
C741        C974   1.490       .  S
C742        C746   1.537       .  S
C742        C744   1.531       .  S
C742        H748   1.111       .  S
C743        H749   1.085       .  S
C743        C744   1.365       .  D
C744       C1005   1.486       .  S
C745        H750   1.085       .  S
C745        C746   1.362       .  D
C746        C988   1.480       .  S
C751        C752   1.535       .  S
C751        C757   1.528       .  S
C751        C755   1.555       .  S
C751       C1229   1.537       .  S
C752        H759   1.087       .  S
C752        C753   1.351       .  D
C753        C754   1.522       .  S
C753       C1019   1.469   1_565  S
C754        C758   1.536       .  S
C754        C756   1.548       .  S
C754        H760   1.110       .  S
C755        H761   1.084       .  S
C755        C756   1.387       .  D
C756        C977   1.494       .  S
C757        H762   1.086       .  S
C757        C758   1.359       .  D
C758        C946   1.474       .  S
C763        C764   1.542       .  S
C763        C769   1.526       .  S
C763        C767   1.544       .  S
C763        C918   1.536       .  S
C764        H771   1.086       .  S
C764        C765   1.363       .  D
C765        C766   1.529       .  S
C765       C1089   1.476       .  S
C766        C770   1.535       .  S
C766        C768   1.552       .  S
C766        H772   1.110       .  S
C767        H773   1.085       .  S
C767        C768   1.381       .  D
C768        C932   1.493       .  S
C769        H774   1.088       .  S
C769        C770   1.356       .  D
C770        C991   1.480       .  S
C775        C776   1.543       .  S
C775        C781   1.545       .  S
C775        C779   1.536       .  S
C775       C2402   1.543       .  S
C776        H783   1.085       .  S
C776        C777   1.374       .  D
C777        C778   1.538       .  S
C777        C935   1.485       .  S
C778        C782   1.535       .  S
C778        C780   1.535       .  S
C778        H784   1.110       .  S
C779        H785   1.086       .  S
C779        C780   1.358       .  D
C780       C1117   1.474       .  S
C781        H786   1.083       .  S
C781        C782   1.366       .  D
C782        C907   1.488   1_455  S
C787        C788   1.543       .  S
C787        C793   1.535       .  S
C787        C791   1.551       .  S
C787       C1243   1.548       .  S
C788        H795   1.085       .  S
C788        C789   1.376       .  D
C789        C790   1.541       .  S
C789        C890   1.487       .  S
C790        C794   1.527       .  S
C790        C792   1.526       .  S
C790        H796   1.111       .  S
C791        H797   1.082       .  S
C791        C792   1.368       .  D
C792       C1061   1.479       .  S
C793        H798   1.087       .  S
C793        C794   1.359       .  D
C794        C949   1.469       .  S
C799        C800   1.529       .  S
C799        C805   1.529       .  S
C799        C803   1.551       .  S
C799       C2489   1.532       .  S
C800        H807   1.087       .  S
C800        C801   1.358       .  D
C801        C802   1.540       .  S
C801       C1156   1.482       .  S
C802        C806   1.535       .  S
C802        C804   1.546       .  S
C802        H808   1.111       .  S
C803        H809   1.084       .  S
C803        C804   1.381       .  D
C804        C893   1.486       .  S
C805        H810   1.087       .  S
C805        C806   1.358       .  D
C806        C904   1.481       .  S
In811       O813   2.278       .  S
In811       O814   2.270       .  S
In811       O822   2.288       .  S
In811       O816   2.232       .  S
In811       O818   2.233       .  S
In811       O819   2.250       .  S
In811       O820   2.288       .  S
In811       O823   2.268       .  S
C812        O818   1.260       .  A
C812        O820   1.263       .  A
C812       C1985   1.491       .  S
O813        C821   1.257       .  A
O814        C821   1.256       .  A
C815        O822   1.262       .  A
C815        O816   1.259       .  A
C815       C1565   1.487       .  S
C817        O819   1.261       .  A
C817        O823   1.263       .  A
C817        C834   1.473       .  S
C821        C856   1.474       .  S
In824       O826   2.270       .  S
In824       O827   2.250       .  S
In824       O835   2.282       .  S
In824       O829   2.234       .  S
In824       O831   2.288       .  S
In824       O832   2.283       .  S
In824       O833   2.225       .  S
In824       O836   2.271       .  S
C825        O831   1.262       .  A
C825        O833   1.260       .  A
C825       C2083   1.489       .  S
O826        C834   1.262       .  A
O827        C834   1.260       .  A
C828        O835   1.262       .  A
C828        O829   1.260       .  A
C828        C921   1.485       .  S
C830        O832   1.259       .  A
C830        O836   1.256       .  A
C830        C847   1.477       .  S
In837       O839   2.266   1_655  S
In837       O840   2.273   1_655  S
In837       O848   2.257       .  S
In837       O842   2.264       .  S
In837       O844   2.239       .  S
In837       O845   2.262       .  S
In837       O846   2.269   1_655  S
In837       O849   2.259       .  S
C838        O844   1.260   1_455  A
C838        O846   1.264       .  A
C838       C1817   1.492       .  S
O839        C847   1.260       .  A
O840        C847   1.260       .  A
C841        O848   1.260       .  A
C841        O842   1.259       .  A
C841        C963   1.490       .  S
C843        O845   1.255       .  A
C843        O849   1.257       .  A
C843        C877   1.465       .  S
In850       O852   2.244       .  S
In850       O853   2.262       .  S
In850       O861   2.276       .  S
In850       O855   2.242       .  S
In850       O857   2.287   1_655  S
In850       O858   2.263   1_655  S
In850       O859   2.226       .  S
In850       O862   2.271   1_655  S
C851        O857   1.262   1_655  A
C851        O859   1.259       .  A
C851       C1145   1.491   1_655  S
O852        C860   1.260       .  A
O853        C860   1.262       .  A
C854        O861   1.262       .  A
C854        O855   1.258       .  A
C854       C1621   1.489       .  S
C856        O858   1.259       .  A
C856        O862   1.260       .  A
C860        C869   1.468       .  S
In863       O865   2.251       .  S
In863       O866   2.253       .  S
In863       O874   2.236       .  S
In863       O868   2.264       .  S
In863       O870   2.277       .  S
In863       O871   2.270       .  S
In863       O872   2.220       .  S
In863       O875   2.248       .  S
C864        O870   1.260       .  A
C864        O872   1.261       .  A
C864       C1047   1.488       .  S
O865        C873   1.258       .  A
O866        C873   1.259       .  A
C867        O874   1.260       .  A
C867        O868   1.263       .  A
C867       C2307   1.489       .  S
C869        O871   1.260       .  A
C869        O875   1.257       .  A
C873        C886   1.464       .  S
In876       O878   2.249       .  S
In876       O879   2.250       .  S
In876       O887   2.263       .  S
In876       O881   2.239       .  S
In876       O883   2.249       .  S
In876       O884   2.265       .  S
In876       O885   2.262       .  S
In876       O888   2.243       .  S
C877        O883   1.256       .  A
C877        O885   1.259       .  A
O878        C886   1.260       .  A
O879        C886   1.260       .  A
C880        O887   1.261       .  A
C880        O881   1.259       .  A
C880       C2265   1.486       .  S
C882        O884   1.263       .  A
C882        O888   1.261       .  A
C882       C1719   1.490       .  S
C889        C890   1.402       .  A
C889        C894   1.403       .  A
C889        H896   1.084       .  S
C890        C891   1.414       .  A
C891        C892   1.413       .  A
C891        N898   1.437       .  S
C892        C893   1.404       .  A
C892        H897   1.084       .  S
C893        C894   1.408       .  A
C894        N895   1.432       .  S
N895        H899   1.046       .  S
N895        H900   1.045       .  S
N898        H901   1.046       .  S
N898        H902   1.045       .  S
C903        C904   1.402       .  A
C903        C908   1.407       .  A
C903        H910   1.084       .  S
C904        C905   1.416       .  A
C905        C906   1.398   1_545  A
C905        N912   1.438   1_545  S
C906        C907   1.404       .  A
C906        H911   1.084       .  S
C907        C908   1.411   1_565  A
C908        N909   1.431   1_655  S
N909        H913   1.045       .  S
N909        H914   1.045       .  S
N912        H915   1.045   1_565  S
N912        H916   1.046       .  S
C917        C918   1.412       .  A
C917        C922   1.414       .  A
C917        H924   1.082       .  S
C918        C919   1.425       .  A
C919        C920   1.395       .  A
C919        N926   1.433       .  S
C920        C921   1.395       .  A
C920        H925   1.084       .  S
C921        C922   1.411       .  A
C922        N923   1.431       .  S
N923        H927   1.046       .  S
N923        H928   1.045       .  S
N926        H929   1.045       .  S
N926        H930   1.046       .  S
C931        C932   1.409       .  A
C931        C936   1.408       .  A
C931        H938   1.083       .  S
C932        C933   1.409       .  A
C933        C934   1.404       .  A
C933        N940   1.432   1_455  S
C934        C935   1.403       .  A
C934        H939   1.084       .  S
C935        C936   1.407       .  A
C936        N937   1.432       .  S
N937        H941   1.046       .  S
N937        H942   1.045       .  S
N940        H943   1.046       .  S
N940        H944   1.045       .  S
C945        C946   1.401   1_545  A
C945        C950   1.388       .  A
C945        H952   1.080       .  S
C946        C947   1.409       .  A
C947        C948   1.410   1_565  A
C947        N954   1.437       .  S
C948        C949   1.402       .  A
C948        H953   1.084       .  S
C949        C950   1.406       .  A
C950        N951   1.436       .  S
N951        H955   1.045       .  S
N951        H956   1.045       .  S
N954        H957   1.046       .  S
N954        H958   1.046       .  S
C959        C960   1.411       .  A
C959        C964   1.403       .  A
C959        H966   1.081       .  S
C960        C961   1.416       .  A
C961        C962   1.409       .  A
C961        N968   1.433       .  S
C962        C963   1.407       .  A
C962        H967   1.084       .  S
C963        C964   1.409       .  A
C964        N965   1.432       .  S
N965        H969   1.045       .  S
N965        H970   1.046       .  S
N968        H971   1.045       .  S
N968        H972   1.046       .  S
C973        C974   1.398       .  A
C973        C978   1.399       .  A
C973        H980   1.084       .  S
C974        C975   1.413       .  A
C975        C976   1.412       .  A
C975        N982   1.431       .  S
C976        C977   1.405       .  A
C976        H981   1.084       .  S
C977        C978   1.414       .  A
C978        N979   1.430       .  S
N979        H983   1.046       .  S
N979        H984   1.046       .  S
N982        H985   1.046       .  S
N982        H986   1.045       .  S
C987        C988   1.399       .  A
C987        C992   1.388   1_655  A
C987        H994   1.084       .  S
C988        C989   1.414       .  A
C989        C990   1.409       .  A
C989        N996   1.437       .  S
C990        C991   1.405   1_655  A
C990        H995   1.083       .  S
C991        C992   1.417       .  A
C992        N993   1.439       .  S
N993        H997   1.045       .  S
N993        H998   1.043       .  S
N996        H999   1.044       .  S
N996       H1000   1.046       .  S
C1001      C1002   1.411       .  A
C1001      C1006   1.405       .  A
C1001      H1008   1.082       .  S
C1002      C1003   1.415   1_655  A
C1003      C1004   1.409   1_455  A
C1003      N1010   1.437       .  S
C1004      C1005   1.403       .  A
C1004      H1009   1.079       .  S
C1005      C1006   1.406       .  A
C1006      N1007   1.438       .  S
N1007      H1011   1.045       .  S
N1007      H1012   1.046       .  S
N1010      H1013   1.045       .  S
N1010      H1014   1.046       .  S
C1015      C1016   1.408       .  A
C1015      C1020   1.387   1_545  A
C1015      H1022   1.079       .  S
C1016      C1017   1.412       .  A
C1017      C1018   1.405       .  A
C1017      N1024   1.431       .  S
C1018      C1019   1.402       .  A
C1018      H1023   1.082       .  S
C1019      C1020   1.408   1_545  A
C1020      N1021   1.436       .  S
N1021      H1025   1.043       .  S
N1021      H1026   1.044       .  S
N1024      H1027   1.046       .  S
N1024      H1028   1.046       .  S
C1029      C1030   1.401       .  A
C1029      C1034   1.402   1_545  A
C1029      H1036   1.084       .  S
C1030      C1031   1.413       .  A
C1031      C1032   1.394   1_655  A
C1031      N1038   1.433       .  S
C1032      C1033   1.402   1_445  A
C1032      H1037   1.084       .  S
C1033      C1034   1.407       .  A
C1034      N1035   1.431       .  S
N1035      H1039   1.046       .  S
N1035      H1040   1.045       .  S
N1038      H1041   1.044       .  S
N1038      H1042   1.044       .  S
C1043      C1044   1.408       .  A
C1043      C1048   1.413       .  A
C1043      H1050   1.081       .  S
C1044      C1045   1.422       .  A
C1045      C1046   1.389       .  A
C1045      N1052   1.435       .  S
C1046      C1047   1.395       .  A
C1046      H1051   1.084       .  S
C1047      C1048   1.422       .  A
C1048      N1049   1.431       .  S
N1049      H1053   1.045       .  S
N1049      H1054   1.045       .  S
N1052      H1055   1.045       .  S
N1052      H1056   1.045       .  S
C1057      C1058   1.404       .  A
C1057      C1062   1.406       .  A
C1057      H1064   1.082       .  S
C1058      C1059   1.420       .  A
C1059      C1060   1.395       .  A
C1059      N1066   1.431       .  S
C1060      C1061   1.394       .  A
C1060      H1065   1.084       .  S
C1061      C1062   1.411       .  A
C1062      N1063   1.430       .  S
N1063      H1067   1.045       .  S
N1063      H1068   1.045       .  S
N1066      H1069   1.046       .  S
N1066      H1070   1.046       .  S
C1071      C1072   1.402       .  A
C1071      C1076   1.403       .  A
C1071      H1078   1.084       .  S
C1072      C1073   1.411       .  A
C1073      C1074   1.412       .  A
C1073      N1080   1.431       .  S
C1074      C1075   1.406       .  A
C1074      H1079   1.084       .  S
C1075      C1076   1.410       .  A
C1076      N1077   1.431       .  S
N1077      H1081   1.046       .  S
N1077      H1082   1.045       .  S
N1080      H1083   1.045       .  S
N1080      H1084   1.046       .  S
C1085      C1086   1.403       .  A
C1085      C1090   1.403       .  A
C1085      H1092   1.083       .  S
C1086      C1087   1.417       .  A
C1087      C1088   1.401       .  A
C1087      N1094   1.437       .  S
C1088      C1089   1.398       .  A
C1088      H1093   1.084       .  S
C1089      C1090   1.408       .  A
C1090      N1091   1.430       .  S
N1091      H1095   1.045       .  S
N1091      H1096   1.045       .  S
N1094      H1097   1.045       .  S
N1094      H1098   1.046       .  S
C1099      C1100   1.401       .  A
C1099      C1104   1.404       .  A
C1099      H1106   1.084       .  S
C1100      C1101   1.408       .  A
C1101      C1102   1.408       .  A
C1101      N1108   1.432       .  S
C1102      C1103   1.404       .  A
C1102      H1107   1.084       .  S
C1103      C1104   1.411       .  A
C1104      N1105   1.433   1_565  S
N1105      H1109   1.045       .  S
N1105      H1110   1.046       .  S
N1108      H1111   1.045       .  S
N1108      H1112   1.046       .  S
C1113      C1114   1.397       .  A
C1113      C1118   1.397       .  A
C1113      H1120   1.083       .  S
C1114      C1115   1.409       .  A
C1115      C1116   1.408   1_545  A
C1115      N1122   1.439   1_545  S
C1116      C1117   1.403       .  A
C1116      H1121   1.084       .  S
C1117      C1118   1.408   1_565  A
C1118      N1119   1.433       .  S
N1119      H1123   1.045       .  S
N1119      H1124   1.045       .  S
N1122      H1125   1.041       .  S
N1122      H1126   1.046       .  S
C1127      C1128   1.405       .  A
C1127      C1132   1.400       .  A
C1127      H1134   1.084       .  S
C1128      C1129   1.412       .  A
C1129      C1130   1.405       .  A
C1129      N1136   1.432       .  S
C1130      C1131   1.404       .  A
C1130      H1135   1.083   1_545  S
C1131      C1132   1.408       .  A
C1132      N1133   1.438       .  S
N1133      H1137   1.046       .  S
N1133      H1138   1.045       .  S
N1136      H1139   1.045   1_545  S
N1136      H1140   1.045       .  S
C1141      C1142   1.409       .  A
C1141      C1146   1.420       .  A
C1141      H1148   1.080       .  S
C1142      C1143   1.421   1_455  A
C1143      C1144   1.393       .  A
C1143      N1150   1.435       .  S
C1144      C1145   1.398   1_655  A
C1144      H1149   1.084       .  S
C1145      C1146   1.418       .  A
C1146      N1147   1.437       .  S
N1147      H1151   1.045       .  S
N1147      H1152   1.045       .  S
N1150      H1153   1.045       .  S
N1150      H1154   1.046       .  S
C1155      C1156   1.406       .  A
C1155      C1160   1.400   1_655  A
C1155      H1162   1.084       .  S
C1156      C1157   1.407       .  A
C1157      C1158   1.406       .  A
C1157      N1164   1.432       .  S
C1158      C1159   1.403       .  A
C1158      H1163   1.083       .  S
C1159      C1160   1.406   1_655  A
C1160      N1161   1.438       .  S
N1161      H1165   1.045       .  S
N1161      H1166   1.046       .  S
N1164      H1167   1.045       .  S
N1164      H1168   1.046       .  S
C1169      C1170   1.401   1_655  A
C1169      C1174   1.402       .  A
C1169      H1176   1.082       .  S
C1170      C1171   1.414       .  A
C1171      C1172   1.399   1_455  A
C1171      N1178   1.437       .  S
C1172      C1173   1.404       .  A
C1172      H1177   1.084       .  S
C1173      C1174   1.410       .  A
C1174      N1175   1.430       .  S
N1175      H1179   1.046       .  S
N1175      H1180   1.045       .  S
N1178      H1181   1.045       .  S
N1178      H1182   1.046       .  S
C1183      C1184   1.400       .  A
C1183      C1188   1.396       .  A
C1183      H1190   1.081       .  S
C1184      C1185   1.414       .  A
C1185      C1186   1.420       .  A
C1185      N1192   1.436       .  S
C1186      C1187   1.412       .  A
C1186      H1191   1.083       .  S
C1187      C1188   1.415       .  A
C1188      N1189   1.429       .  S
N1189      H1193   1.046       .  S
N1189      H1194   1.046       .  S
N1192      H1195   1.045       .  S
N1192      H1196   1.046       .  S
C1197      C1198   1.411       .  A
C1197      C1202   1.422       .  A
C1197      H1204   1.080       .  S
C1198      C1199   1.421       .  A
C1199      C1200   1.390       .  A
C1199      N1206   1.435       .  S
C1200      C1201   1.396       .  A
C1200      H1205   1.084       .  S
C1201      C1202   1.417       .  A
C1202      N1203   1.437       .  S
N1203      H1207   1.046       .  S
N1203      H1208   1.046       .  S
N1206      H1209   1.046       .  S
N1206      H1210   1.046       .  S
C1211      C1212   1.411       .  A
C1211      C1216   1.405       .  A
C1211      H1218   1.081       .  S
C1212      C1213   1.427       .  A
C1213      C1214   1.407       .  A
C1213      N1220   1.438       .  S
C1214      C1215   1.404       .  A
C1214      H1219   1.084       .  S
C1215      C1216   1.410       .  A
C1216      N1217   1.432       .  S
N1217      H1221   1.046       .  S
N1217      H1222   1.046       .  S
N1220      H1223   1.043       .  S
N1220      H1224   1.045       .  S
C1225      C1226   1.391   1_545  A
C1225      C1230   1.384       .  A
C1225      H1232   1.085       .  S
C1226      C1227   1.409       .  A
C1227      C1228   1.416       .  A
C1227      N1234   1.431       .  S
C1228      C1229   1.411       .  A
C1228      H1233   1.081       .  S
C1229      C1230   1.438   1_565  A
C1230      N1231   1.437       .  S
N1231      H1235   1.039       .  S
N1231      H1236   1.042       .  S
N1234      H1237   1.046       .  S
N1234      H1238   1.045       .  S
C1239      C1240   1.404       .  A
C1239      C1244   1.412       .  A
C1239      H1246   1.083       .  S
C1240      C1241   1.412       .  A
C1241      C1242   1.406       .  A
C1241      N1248   1.433       .  S
C1242      C1243   1.411       .  A
C1242      H1247   1.078       .  S
C1243      C1244   1.421       .  A
C1244      N1245   1.438       .  S
N1245      H1249   1.045       .  S
N1245      H1250   1.045       .  S
N1248      H1251   1.046       .  S
N1248      H1252   1.046       .  S
C1253      C1254   1.396       .  A
C1253      C1258   1.388       .  A
C1253      H1260   1.084       .  S
C1254      C1255   1.410       .  A
C1255      C1256   1.411       .  A
C1255      N1262   1.431       .  S
C1256      C1257   1.411       .  A
C1256      H1261   1.079       .  S
C1257      C1258   1.434       .  A
C1258      N1259   1.438       .  S
N1259      H1263   1.040       .  S
N1259      H1264   1.042       .  S
N1262      H1265   1.045       .  S
N1262      H1266   1.046       .  S
C1267      C1268   1.407       .  A
C1267      C1272   1.413       .  A
C1267      H1274   1.084       .  S
C1268      C1269   1.407       .  A
C1269      C1270   1.398       .  A
C1269      N1276   1.432       .  S
C1270      C1271   1.400       .  A
C1270      H1275   1.084       .  S
C1271      C1272   1.409       .  A
C1272      N1273   1.432       .  S
N1273      H1277   1.045       .  S
N1273      H1278   1.045       .  S
N1276      H1279   1.045       .  S
N1276      H1280   1.046       .  S
C1281      C1282   1.404   1_545  A
C1281      C1286   1.405   1_554  A
C1281      H1288   1.083       .  S
C1282      C1283   1.408   1_554  A
C1283      C1284   1.401   1_565  A
C1283      N1290   1.433       .  S
C1284      C1285   1.405       .  A
C1284      H1289   1.084       .  S
C1285      C1286   1.408       .  A
C1286      N1287   1.431   1_556  S
N1287      H1291   1.045       .  S
N1287      H1292   1.045       .  S
N1290      H1293   1.045       .  S
N1290      H1294   1.046       .  S
C1295      C1296   1.404       .  A
C1295      C1300   1.406       .  A
C1295      H1302   1.084       .  S
C1296      C1297   1.407       .  A
C1297      C1298   1.404       .  A
C1297      N1304   1.431       .  S
C1298      C1299   1.401       .  A
C1298      H1303   1.084       .  S
C1299      C1300   1.415       .  A
C1300      N1301   1.432       .  S
N1301      H1305   1.046       .  S
N1301      H1306   1.045       .  S
N1304      H1307   1.045       .  S
N1304      H1308   1.045       .  S
C1309      C1310   1.400       .  A
C1309      C1314   1.397       .  A
C1309      H1316   1.084       .  S
C1310      C1311   1.409   1_556  A
C1311      C1312   1.406       .  A
C1311      N1318   1.431       .  S
C1312      C1313   1.403       .  A
C1312      H1317   1.084       .  S
C1313      C1314   1.416   1_554  A
C1314      N1315   1.438       .  S
N1315      H1319   1.046       .  S
N1315      H1320   1.044   1_556  S
N1318      H1321   1.045       .  S
N1318      H1322   1.045       .  S
C1323      C1324   1.409       .  A
C1323      C1328   1.415       .  A
C1323      H1330   1.080       .  S
C1324      C1325   1.423   1_565  A
C1325      C1326   1.399       .  A
C1325      N1332   1.435       .  S
C1326      C1327   1.400   1_545  A
C1326      H1331   1.084       .  S
C1327      C1328   1.423       .  A
C1328      N1329   1.431       .  S
N1329      H1333   1.045       .  S
N1329      H1334   1.045       .  S
N1332      H1335   1.045       .  S
N1332      H1336   1.046       .  S
C1337      C1338   1.405       .  A
C1337      C1342   1.404       .  A
C1337      H1344   1.084       .  S
C1338      C1339   1.411       .  A
C1339      C1340   1.414       .  A
C1339      N1346   1.431       .  S
C1340      C1341   1.407       .  A
C1340      H1345   1.083       .  S
C1341      C1342   1.410       .  A
C1342      N1343   1.433       .  S
N1343      H1347   1.046       .  S
N1343      H1348   1.045       .  S
N1346      H1349   1.046       .  S
N1346      H1350   1.045       .  S
C1351      C1352   1.405       .  A
C1351      C1356   1.401   1_565  A
C1351      H1358   1.084       .  S
C1352      C1353   1.409   1_565  A
C1353      C1354   1.405       .  A
C1353      N1360   1.430       .  S
C1354      C1355   1.402       .  A
C1354      H1359   1.083       .  S
C1355      C1356   1.411       .  A
C1356      N1357   1.438       .  S
N1357      H1361   1.046   1_545  S
N1357      H1362   1.045       .  S
N1360      H1363   1.043       .  S
N1360      H1364   1.045       .  S
C1365      C1366   1.399       .  A
C1365      C1370   1.398       .  A
C1365      H1372   1.083       .  S
C1366      C1367   1.413   1_554  A
C1367      C1368   1.400       .  A
C1367      N1374   1.431       .  S
C1368      C1369   1.401       .  A
C1368      H1373   1.084       .  S
C1369      C1370   1.409   1_556  A
C1370      N1371   1.433       .  S
N1371      H1375   1.045       .  S
N1371      H1376   1.045       .  S
N1374      H1377   1.041       .  S
N1374      H1378   1.045       .  S
C1379      C1380   1.399       .  A
C1379      C1384   1.401       .  A
C1379      H1386   1.084       .  S
C1380      C1381   1.414       .  A
C1381      C1382   1.407   1_545  A
C1381      N1388   1.439   1_545  S
C1382      C1383   1.401   1_565  A
C1382      H1387   1.084       .  S
C1383      C1384   1.409       .  A
C1384      N1385   1.433       .  S
N1385      H1389   1.045       .  S
N1385      H1390   1.045       .  S
N1388      H1391   1.044       .  S
N1388      H1392   1.046       .  S
C1393      C1394   1.404   1_554  A
C1393      C1398   1.398       .  A
C1393      H1400   1.084       .  S
C1394      C1395   1.410       .  A
C1395      C1396   1.403   1_556  A
C1395      N1402   1.431       .  S
C1396      C1397   1.401       .  A
C1396      H1401   1.082   1_545  S
C1397      C1398   1.407       .  A
C1398      N1399   1.433       .  S
N1399      H1403   1.046       .  S
N1399      H1404   1.045       .  S
N1402      H1405   1.044       .  S
N1402      H1406   1.045       .  S
C1407      C1408   1.403       .  A
C1407      C1412   1.399       .  A
C1407      H1414   1.082       .  S
C1408      C1409   1.407       .  A
C1409      C1410   1.405       .  A
C1409      N1416   1.432       .  S
C1410      C1411   1.403       .  A
C1410      H1415   1.084       .  S
C1411      C1412   1.403       .  A
C1412      N1413   1.432       .  S
N1413      H1417   1.045       .  S
N1413      H1418   1.046       .  S
N1416      H1419   1.045       .  S
N1416      H1420   1.046       .  S
C1421      C1422   1.401       .  A
C1421      C1426   1.402       .  A
C1421      H1428   1.084       .  S
C1422      C1423   1.413       .  A
C1423      C1424   1.411       .  A
C1423      N1430   1.431       .  S
C1424      C1425   1.404       .  A
C1424      H1429   1.083       .  S
C1425      C1426   1.413       .  A
C1426      N1427   1.433       .  S
N1427      H1431   1.045       .  S
N1427      H1432   1.046       .  S
N1430      H1433   1.045       .  S
N1430      H1434   1.046       .  S
C1435      C1436   1.409       .  A
C1435      C1440   1.399       .  A
C1435      H1442   1.079       .  S
C1436      C1437   1.416       .  A
C1437      C1438   1.408       .  A
C1437      N1444   1.433       .  S
C1438      C1439   1.406       .  A
C1438      H1443   1.084       .  S
C1439      C1440   1.418       .  A
C1440      N1441   1.433       .  S
N1441      H1445   1.045       .  S
N1441      H1446   1.045       .  S
N1444      H1447   1.046       .  S
N1444      H1448   1.045       .  S
C1449      C1450   1.403       .  A
C1449      C1454   1.409       .  A
C1449      H1456   1.083       .  S
C1450      C1451   1.403       .  A
C1451      C1452   1.394       .  A
C1451      N1458   1.434       .  S
C1452      C1453   1.408       .  A
C1452      H1457   1.083       .  S
C1453      C1454   1.413       .  A
C1454      N1455   1.432       .  S
N1455      H1459   1.046       .  S
N1455      H1460   1.045       .  S
N1458      H1461   1.045       .  S
N1458      H1462   1.045       .  S
C1463      C1464   1.406       .  A
C1463      C1468   1.411       .  A
C1463      H1470   1.083       .  S
C1464      C1465   1.411       .  A
C1465      C1466   1.392       .  A
C1465      N1472   1.431       .  S
C1466      C1467   1.397       .  A
C1466      H1471   1.081       .  S
C1467      C1468   1.413       .  A
C1468      N1469   1.437       .  S
N1469      H1473   1.046       .  S
N1469      H1474   1.046       .  S
N1472      H1475   1.045       .  S
N1472      H1476   1.046       .  S
C1477      C1478   1.403       .  A
C1477      C1482   1.400       .  A
C1477      H1484   1.084       .  S
C1478      C1479   1.416   1_556  A
C1479      C1480   1.404       .  A
C1479      N1486   1.438       .  S
C1480      C1481   1.400       .  A
C1480      H1485   1.084       .  S
C1481      C1482   1.412   1_554  A
C1482      N1483   1.428       .  S
N1483      H1487   1.043       .  S
N1483      H1488   1.045       .  S
N1486      H1489   1.045       .  S
N1486      H1490   1.046       .  S
C1491      C1492   1.404       .  A
C1491      C1496   1.415   1_556  A
C1491      H1498   1.083       .  S
C1492      C1493   1.408       .  A
C1493      C1494   1.390       .  A
C1493      N1500   1.433       .  S
C1494      C1495   1.403   1_556  A
C1494      H1499   1.084       .  S
C1495      C1496   1.411       .  A
C1496      N1497   1.434       .  S
N1497      H1501   1.046       .  S
N1497      H1502   1.045       .  S
N1500      H1503   1.045       .  S
N1500      H1504   1.046       .  S
C1505      C1506   1.404       .  A
C1505      C1510   1.409       .  A
C1505      H1512   1.083       .  S
C1506      C1507   1.412       .  A
C1507      C1508   1.409       .  A
C1507      N1514   1.438       .  S
C1508      C1509   1.413       .  A
C1508      H1513   1.075       .  S
C1509      C1510   1.420       .  A
C1510      N1511   1.438       .  S
N1511      H1515   1.046       .  S
N1511      H1516   1.044       .  S
N1514      H1517   1.045       .  S
N1514      H1518   1.046       .  S
C1519      C1520   1.400       .  A
C1519      C1524   1.401       .  A
C1519      H1526   1.083       .  S
C1520      C1521   1.415       .  A
C1521      C1522   1.400   1_545  A
C1521      N1528   1.426   1_545  S
C1522      C1523   1.399   1_565  A
C1522      H1527   1.084       .  S
C1523      C1524   1.412       .  A
C1524      N1525   1.432       .  S
N1525      H1529   1.046       .  S
N1525      H1530   1.046       .  S
N1528      H1531   1.044   1_565  S
N1528      H1532   1.042       .  S
C1533      C1534   1.401       .  A
C1533      C1538   1.384   1_545  A
C1533      H1540   1.083       .  S
C1534      C1535   1.409       .  A
C1535      C1536   1.414       .  A
C1535      N1542   1.436       .  S
C1536      C1537   1.405   1_545  A
C1536      H1541   1.083       .  S
C1537      C1538   1.404       .  A
C1538      N1539   1.434       .  S
N1539      H1543   1.046       .  S
N1539      H1544   1.045       .  S
N1542      H1545   1.046       .  S
N1542      H1546   1.046       .  S
C1547      C1548   1.404       .  A
C1547      C1552   1.405       .  A
C1547      H1554   1.083       .  S
C1548      C1549   1.413       .  A
C1549      C1550   1.409       .  A
C1549      N1556   1.437       .  S
C1550      C1551   1.406       .  A
C1550      H1555   1.084       .  S
C1551      C1552   1.414       .  A
C1552      N1553   1.430       .  S
N1553      H1557   1.042       .  S
N1553      H1558   1.046       .  S
N1556      H1559   1.046       .  S
N1556      H1560   1.044       .  S
C1561      C1562   1.415       .  A
C1561      C1566   1.412       .  A
C1561      H1568   1.080       .  S
C1562      C1563   1.433       .  A
C1563      C1564   1.391       .  A
C1563      N1570   1.434       .  S
C1564      C1565   1.395       .  A
C1564      H1569   1.085       .  S
C1565      C1566   1.415       .  A
C1566      N1567   1.432       .  S
N1567      H1571   1.045       .  S
N1567      H1572   1.046       .  S
N1570      H1573   1.042       .  S
N1570      H1574   1.042       .  S
C1575      C1576   1.407       .  A
C1575      C1580   1.407       .  A
C1575      H1582   1.083       .  S
C1576      C1577   1.409       .  A
C1577      C1578   1.406       .  A
C1577      N1584   1.429   1_455  S
C1578      C1579   1.404       .  A
C1578      H1583   1.084       .  S
C1579      C1580   1.409       .  A
C1580      N1581   1.432       .  S
N1581      H1585   1.046       .  S
N1581      H1586   1.045       .  S
N1584      H1587   1.046       .  S
N1584      H1588   1.046       .  S
C1589      C1590   1.397       .  A
C1589      C1594   1.389   1_655  A
C1589      H1596   1.078       .  S
C1590      C1591   1.406   1_554  A
C1591      C1592   1.407       .  A
C1591      N1598   1.431       .  S
C1592      C1593   1.404   1_655  A
C1592      H1597   1.084       .  S
C1593      C1594   1.407   1_556  A
C1594      N1595   1.433       .  S
N1595      H1599   1.045       .  S
N1595      H1600   1.046       .  S
N1598      H1601   1.045       .  S
N1598      H1602   1.046       .  S
C1603      C1604   1.404       .  A
C1603      C1608   1.401       .  A
C1603      H1610   1.084       .  S
C1604      C1605   1.411       .  A
C1605      C1606   1.411       .  A
C1605      N1612   1.437       .  S
C1606      C1607   1.405       .  A
C1606      H1611   1.083       .  S
C1607      C1608   1.409       .  A
C1608      N1609   1.433       .  S
N1609      H1613   1.045       .  S
N1609      H1614   1.046       .  S
N1612      H1615   1.046       .  S
N1612      H1616   1.046       .  S
C1617      C1618   1.408       .  A
C1617      C1622   1.402       .  A
C1617      H1624   1.080       .  S
C1618      C1619   1.417       .  A
C1619      C1620   1.409       .  A
C1619      N1626   1.433       .  S
C1620      C1621   1.405       .  A
C1620      H1625   1.083       .  S
C1621      C1622   1.411       .  A
C1622      N1623   1.433       .  S
N1623      H1627   1.046       .  S
N1623      H1628   1.046       .  S
N1626      H1629   1.045       .  S
N1626      H1630   1.046       .  S
C1631      C1632   1.405       .  A
C1631      C1636   1.410       .  A
C1631      H1638   1.084       .  S
C1632      C1633   1.421       .  A
C1633      C1634   1.389   1_655  A
C1633      N1640   1.439   1_655  S
C1634      C1635   1.398       .  A
C1634      H1639   1.083       .  S
C1635      C1636   1.405   1_455  A
C1636      N1637   1.429       .  S
N1637      H1641   1.045       .  S
N1637      H1642   1.046       .  S
N1640      H1643   1.036   1_455  S
N1640      H1644   1.046       .  S
C1645      C1646   1.399       .  A
C1645      C1650   1.396       .  A
C1645      H1652   1.084       .  S
C1646      C1647   1.412       .  A
C1647      C1648   1.418       .  A
C1647      N1654   1.436       .  S
C1648      C1649   1.410       .  A
C1648      H1653   1.083       .  S
C1649      C1650   1.414       .  A
C1650      N1651   1.431       .  S
N1651      H1655   1.046       .  S
N1651      H1656   1.045       .  S
N1654      H1657   1.046       .  S
N1654      H1658   1.045       .  S
C1659      C1660   1.399   1_554  A
C1659      C1664   1.388       .  A
C1659      H1666   1.084       .  S
C1660      C1661   1.414       .  A
C1661      C1662   1.405       .  A
C1661      N1668   1.437       .  S
C1662      C1663   1.403   1_556  A
C1662      H1667   1.084       .  S
C1663      C1664   1.402       .  A
C1664      N1665   1.431       .  S
N1665      H1669   1.045       .  S
N1665      H1670   1.045       .  S
N1668      H1671   1.045       .  S
N1668      H1672   1.045       .  S
C1673      C1674   1.408       .  A
C1673      C1678   1.393       .  A
C1673      H1680   1.083       .  S
C1674      C1675   1.409       .  A
C1675      C1676   1.404       .  A
C1675      N1682   1.432   1_655  S
C1676      C1677   1.404       .  A
C1676      H1681   1.082       .  S
C1677      C1678   1.411       .  A
C1678      N1679   1.434       .  S
N1679      H1683   1.043       .  S
N1679      H1684   1.044       .  S
N1682      H1685   1.046       .  S
N1682      H1686   1.046       .  S
C1687      C1688   1.404       .  A
C1687      C1692   1.403   1_554  A
C1687      H1694   1.081       .  S
C1688      C1689   1.419   1_554  A
C1689      C1690   1.402       .  A
C1689      N1696   1.438       .  S
C1690      C1691   1.399       .  A
C1690      H1695   1.084       .  S
C1691      C1692   1.408       .  A
C1692      N1693   1.429   1_556  S
N1693      H1697   1.045   1_554  S
N1693      H1698   1.046       .  S
N1696      H1699   1.046       .  S
N1696      H1700   1.046       .  S
C1701      C1702   1.403   1_556  A
C1701      C1706   1.400       .  A
C1701      H1708   1.084       .  S
C1702      C1703   1.415       .  A
C1703      C1704   1.399   1_654  A
C1703      N1710   1.439       .  S
C1704      C1705   1.403   1_455  A
C1704      H1709   1.084       .  S
C1705      C1706   1.406       .  A
C1706      N1707   1.432       .  S
N1707      H1711   1.045       .  S
N1707      H1712   1.046       .  S
N1710      H1713   1.044       .  S
N1710      H1714   1.046   1_655  S
C1715      C1716   1.410       .  A
C1715      C1720   1.406       .  A
C1715      H1722   1.080       .  S
C1716      C1717   1.417       .  A
C1717      C1718   1.410       .  A
C1717      N1724   1.437       .  S
C1718      C1719   1.405       .  A
C1718      H1723   1.083       .  S
C1719      C1720   1.413       .  A
C1720      N1721   1.438       .  S
N1721      H1725   1.046       .  S
N1721      H1726   1.046       .  S
N1724      H1727   1.046       .  S
N1724      H1728   1.045       .  S
C1729      C1730   1.404       .  A
C1729      C1734   1.405       .  A
C1729      H1736   1.082       .  S
C1730      C1731   1.411       .  A
C1731      C1732   1.393       .  A
C1731      N1738   1.440       .  S
C1732      C1733   1.409       .  A
C1732      H1737   1.082       .  S
C1733      C1734   1.410       .  A
C1734      N1735   1.432       .  S
N1735      H1739   1.046       .  S
N1735      H1740   1.046       .  S
N1738      H1741   1.042       .  S
N1738      H1742   1.046       .  S
C1743      C1744   1.403       .  A
C1743      C1748   1.407       .  A
C1743      H1750   1.084       .  S
C1744      C1745   1.412       .  A
C1745      C1746   1.406       .  A
C1745      N1752   1.432       .  S
C1746      C1747   1.405       .  A
C1746      H1751   1.084       .  S
C1747      C1748   1.411       .  A
C1748      N1749   1.432       .  S
N1749      H1753   1.046       .  S
N1749      H1754   1.046       .  S
N1752      H1755   1.046       .  S
N1752      H1756   1.046       .  S
C1757      C1758   1.399       .  A
C1757      C1762   1.404       .  A
C1757      H1764   1.084       .  S
C1758      C1759   1.412       .  A
C1759      C1760   1.405       .  A
C1759      N1766   1.432       .  S
C1760      C1761   1.402       .  A
C1760      H1765   1.084       .  S
C1761      C1762   1.410       .  A
C1762      N1763   1.427       .  S
N1763      H1767   1.045       .  S
N1763      H1768   1.046       .  S
N1766      H1769   1.046       .  S
N1766      H1770   1.045       .  S
C1771      C1772   1.404       .  A
C1771      C1776   1.407       .  A
C1771      H1778   1.084       .  S
C1772      C1773   1.410       .  A
C1773      C1774   1.405       .  A
C1773      N1780   1.432       .  S
C1774      C1775   1.406       .  A
C1774      H1779   1.083       .  S
C1775      C1776   1.413       .  A
C1776      N1777   1.432       .  S
N1777      H1781   1.046       .  S
N1777      H1782   1.046       .  S
N1780      H1783   1.046       .  S
N1780      H1784   1.045       .  S
C1785      C1786   1.409   1_556  A
C1785      C1790   1.398       .  A
C1785      H1792   1.083       .  S
C1786      C1787   1.407       .  A
C1787      C1788   1.401   1_554  A
C1787      N1794   1.432       .  S
C1788      C1789   1.400       .  A
C1788      H1793   1.077   1_556  S
C1789      C1790   1.408       .  A
C1790      N1791   1.433       .  S
N1791      H1795   1.044       .  S
N1791      H1796   1.046       .  S
N1794      H1797   1.045       .  S
N1794      H1798   1.045       .  S
C1799      C1800   1.405       .  A
C1799      C1804   1.403       .  A
C1799      H1806   1.084       .  S
C1800      C1801   1.411       .  A
C1801      C1802   1.398   1_554  A
C1801      N1808   1.430   1_554  S
C1802      C1803   1.400       .  A
C1802      H1807   1.083       .  S
C1803      C1804   1.410   1_556  A
C1804      N1805   1.437       .  S
N1805      H1809   1.045       .  S
N1805      H1810   1.046       .  S
N1808      H1811   1.045       .  S
N1808      H1812   1.046       .  S
C1813      C1814   1.410       .  A
C1813      C1818   1.408       .  A
C1813      H1820   1.076       .  S
C1814      C1815   1.417       .  A
C1815      C1816   1.407       .  A
C1815      N1822   1.433       .  S
C1816      C1817   1.404       .  A
C1816      H1821   1.084       .  S
C1817      C1818   1.414       .  A
C1818      N1819   1.438       .  S
N1819      H1823   1.046       .  S
N1819      H1824   1.046       .  S
N1822      H1825   1.046       .  S
N1822      H1826   1.045       .  S
C1827      C1828   1.403       .  A
C1827      C1832   1.402       .  A
C1827      H1834   1.083       .  S
C1828      C1829   1.416       .  A
C1829      C1830   1.404   1_655  A
C1829      N1836   1.433   1_655  S
C1830      C1831   1.401   1_455  A
C1830      H1835   1.084       .  S
C1831      C1832   1.406       .  A
C1832      N1833   1.429       .  S
N1833      H1837   1.045       .  S
N1833      H1838   1.046       .  S
N1836      H1839   1.046       .  S
N1836      H1840   1.046       .  S
C1841      C1842   1.404       .  A
C1841      C1846   1.408       .  A
C1841      H1848   1.084       .  S
C1842      C1843   1.409       .  A
C1843      C1844   1.392       .  A
C1843      N1850   1.434       .  S
C1844      C1845   1.401       .  A
C1844      H1849   1.084       .  S
C1845      C1846   1.414       .  A
C1846      N1847   1.429   1_655  S
N1847      H1851   1.045       .  S
N1847      H1852   1.045       .  S
N1850      H1853   1.046       .  S
N1850      H1854   1.045       .  S
C1855      C1856   1.403       .  A
C1855      C1860   1.405       .  A
C1855      H1862   1.084       .  S
C1856      C1857   1.410       .  A
C1857      C1858   1.407       .  A
C1857      N1864   1.438       .  S
C1858      C1859   1.401       .  A
C1858      H1863   1.079       .  S
C1859      C1860   1.411       .  A
C1860      N1861   1.432       .  S
N1861      H1865   1.046       .  S
N1861      H1866   1.046       .  S
N1864      H1867   1.046       .  S
N1864      H1868   1.046       .  S
C1869      C1870   1.404       .  A
C1869      C1874   1.407       .  A
C1869      H1876   1.083       .  S
C1870      C1871   1.411       .  A
C1871      C1872   1.404       .  A
C1871      N1878   1.433       .  S
C1872      C1873   1.409       .  A
C1872      H1877   1.079       .  S
C1873      C1874   1.417       .  A
C1874      N1875   1.433       .  S
N1875      H1879   1.045       .  S
N1875      H1880   1.046       .  S
N1878      H1881   1.046       .  S
N1878      H1882   1.046       .  S
C1883      C1884   1.410       .  A
C1883      C1888   1.405       .  A
C1883      H1890   1.081       .  S
C1884      C1885   1.417       .  A
C1885      C1886   1.408       .  A
C1885      N1892   1.433       .  S
C1886      C1887   1.404       .  A
C1886      H1891   1.083       .  S
C1887      C1888   1.412       .  A
C1888      N1889   1.432       .  S
N1889      H1893   1.046       .  S
N1889      H1894   1.046       .  S
N1892      H1895   1.046       .  S
N1892      H1896   1.045       .  S
C1897      C1898   1.413       .  A
C1897      C1902   1.397       .  A
C1897      H1904   1.084   1_556  S
C1898      C1899   1.419       .  A
C1899      C1900   1.417       .  A
C1899      N1906   1.428       .  S
C1900      C1901   1.408       .  A
C1900      H1905   1.083       .  S
C1901      C1902   1.408       .  A
C1902      N1903   1.434   1_556  S
N1903      H1907   1.046       .  S
N1903      H1908   1.046       .  S
N1906      H1909   1.046       .  S
N1906      H1910   1.046       .  S
C1911      C1912   1.408       .  A
C1911      C1916   1.398       .  A
C1911      H1918   1.082       .  S
C1912      C1913   1.415       .  A
C1913      C1914   1.404       .  A
C1913      N1920   1.433       .  S
C1914      C1915   1.405       .  A
C1914      H1919   1.084       .  S
C1915      C1916   1.417       .  A
C1916      N1917   1.432       .  S
N1917      H1921   1.045       .  S
N1917      H1922   1.045       .  S
N1920      H1923   1.045       .  S
N1920      H1924   1.046       .  S
C1925      C1926   1.399       .  A
C1925      C1930   1.396       .  A
C1925      H1932   1.084   1_556  S
C1926      C1927   1.418       .  A
C1927      C1928   1.420       .  A
C1927      N1934   1.436       .  S
C1928      C1929   1.409       .  A
C1928      H1933   1.080       .  S
C1929      C1930   1.422       .  A
C1930      N1931   1.436   1_556  S
N1931      H1935   1.046       .  S
N1931      H1936   1.046       .  S
N1934      H1937   1.046       .  S
N1934      H1938   1.046       .  S
C1939      C1940   1.404       .  A
C1939      C1944   1.407       .  A
C1939      H1946   1.083       .  S
C1940      C1941   1.412       .  A
C1941      C1942   1.407       .  A
C1941      N1948   1.438       .  S
C1942      C1943   1.411       .  A
C1942      H1947   1.079       .  S
C1943      C1944   1.418       .  A
C1944      N1945   1.438       .  S
N1945      H1949   1.046       .  S
N1945      H1950   1.045       .  S
N1948      H1951   1.046       .  S
N1948      H1952   1.046       .  S
C1953      C1954   1.411       .  A
C1953      C1958   1.415       .  A
C1953      H1960   1.084       .  S
C1954      C1955   1.412       .  A
C1955      C1956   1.390       .  A
C1955      N1962   1.434       .  S
C1956      C1957   1.415       .  A
C1956      H1961   1.085       .  S
C1957      C1958   1.413       .  A
C1958      N1959   1.428       .  S
N1959      H1963   1.045       .  S
N1959      H1964   1.046       .  S
N1962      H1965   1.045       .  S
N1962      H1966   1.045       .  S
C1967      C1968   1.396       .  A
C1967      C1972   1.390       .  A
C1967      H1974   1.084       .  S
C1968      C1969   1.424       .  A
C1969      C1970   1.416       .  A
C1969      N1976   1.431       .  S
C1970      C1971   1.408       .  A
C1970      H1975   1.082       .  S
C1971      C1972   1.423       .  A
C1972      N1973   1.435       .  S
N1973      H1977   1.046       .  S
N1973      H1978   1.046       .  S
N1976      H1979   1.045       .  S
N1976      H1980   1.045       .  S
C1981      C1982   1.413       .  A
C1981      C1986   1.393       .  A
C1981      H1988   1.085       .  S
C1982      C1983   1.417       .  A
C1983      C1984   1.419       .  A
C1983      N1990   1.428       .  S
C1984      C1985   1.411       .  A
C1984      H1989   1.083       .  S
C1985      C1986   1.406       .  A
C1986      N1987   1.434       .  S
N1987      H1991   1.046       .  S
N1987      H1992   1.046       .  S
N1990      H1993   1.045       .  S
N1990      H1994   1.046       .  S
C1995      C1996   1.411       .  A
C1995      C2000   1.398       .  A
C1995      H2002   1.075       .  S
C1996      C1997   1.424       .  A
C1997      C1998   1.400       .  A
C1997      N2004   1.434       .  S
C1998      C1999   1.404       .  A
C1998      H2003   1.084       .  S
C1999      C2000   1.415       .  A
C2000      N2001   1.433       .  S
N2001      H2005   1.044       .  S
N2001      H2006   1.046       .  S
N2004      H2007   1.042       .  S
N2004      H2008   1.044       .  S
C2009      C2010   1.406       .  A
C2009      C2014   1.407       .  A
C2009      H2016   1.084       .  S
C2010      C2011   1.407       .  A
C2011      C2012   1.404       .  A
C2011      N2018   1.430       .  S
C2012      C2013   1.404       .  A
C2012      H2017   1.084       .  S
C2013      C2014   1.409       .  A
C2014      N2015   1.431       .  S
N2015      H2019   1.046       .  S
N2015      H2020   1.045       .  S
N2018      H2021   1.046       .  S
N2018      H2022   1.046       .  S
C2023      C2024   1.412       .  A
C2023      C2028   1.419       .  A
C2023      H2030   1.081       .  S
C2024      C2025   1.423       .  A
C2025      C2026   1.398       .  A
C2025      N2032   1.433       .  S
C2026      C2027   1.398       .  A
C2026      H2031   1.084       .  S
C2027      C2028   1.417       .  A
C2028      N2029   1.437       .  S
N2029      H2033   1.046       .  S
N2029      H2034   1.045       .  S
N2032      H2035   1.046       .  S
N2032      H2036   1.045       .  S
C2037      C2038   1.409       .  A
C2037      C2042   1.406       .  A
C2037      H2044   1.076       .  S
C2038      C2039   1.419       .  A
C2039      C2040   1.408       .  A
C2039      N2046   1.433       .  S
C2040      C2041   1.403       .  A
C2040      H2045   1.084       .  S
C2041      C2042   1.413       .  A
C2042      N2043   1.439       .  S
N2043      H2047   1.045       .  S
N2043      H2048   1.046       .  S
N2046      H2049   1.046       .  S
N2046      H2050   1.045       .  S
C2051      C2052   1.400       .  A
C2051      C2056   1.388       .  A
C2051      H2058   1.085       .  S
C2052      C2053   1.408       .  A
C2053      C2054   1.404       .  A
C2053      N2060   1.431       .  S
C2054      C2055   1.405       .  A
C2054      H2059   1.081       .  S
C2055      C2056   1.419       .  A
C2056      N2057   1.439       .  S
N2057      H2061   1.046       .  S
N2057      H2062   1.040       .  S
N2060      H2063   1.045       .  S
N2060      H2064   1.045       .  S
C2065      C2066   1.402       .  A
C2065      C2070   1.409       .  A
C2065      H2072   1.083       .  S
C2066      C2067   1.410       .  A
C2067      C2068   1.406       .  A
C2067      N2074   1.432       .  S
C2068      C2069   1.404       .  A
C2068      H2073   1.084       .  S
C2069      C2070   1.411       .  A
C2070      N2071   1.436       .  S
N2071      H2075   1.046       .  S
N2071      H2076   1.045       .  S
N2074      H2077   1.046       .  S
N2074      H2078   1.045       .  S
C2079      C2080   1.410       .  A
C2079      C2084   1.420       .  A
C2079      H2086   1.080       .  S
C2080      C2081   1.421       .  A
C2081      C2082   1.392       .  A
C2081      N2088   1.436       .  S
C2082      C2083   1.397       .  A
C2082      H2087   1.084       .  S
C2083      C2084   1.418       .  A
C2084      N2085   1.437       .  S
N2085      H2089   1.046       .  S
N2085      H2090   1.046       .  S
N2088      H2091   1.046       .  S
N2088      H2092   1.046       .  S
C2093      C2094   1.400       .  A
C2093      C2098   1.404       .  A
C2093      H2100   1.081       .  S
C2094      C2095   1.416       .  A
C2095      C2096   1.397       .  A
C2095      N2102   1.438       .  S
C2096      C2097   1.403       .  A
C2096      H2101   1.084       .  S
C2097      C2098   1.411       .  A
C2098      N2099   1.431       .  S
N2099      H2103   1.044       .  S
N2099      H2104   1.045       .  S
N2102      H2105   1.045       .  S
N2102      H2106   1.046       .  S
C2107      C2108   1.396       .  A
C2107      C2112   1.391       .  A
C2107      H2114   1.084       .  S
C2108      C2109   1.417       .  A
C2109      C2110   1.420       .  A
C2109      N2116   1.437       .  S
C2110      C2111   1.409       .  A
C2110      H2115   1.081       .  S
C2111      C2112   1.423       .  A
C2112      N2113   1.435       .  S
N2113      H2117   1.046       .  S
N2113      H2118   1.046       .  S
N2116      H2119   1.045       .  S
N2116      H2120   1.046       .  S
C2121      C2122   1.395       .  A
C2121      C2126   1.384       .  A
C2121      H2128   1.084       .  S
C2122      C2123   1.408       .  A
C2123      C2124   1.413       .  A
C2123      N2130   1.436       .  S
C2124      C2125   1.405       .  A
C2124      H2129   1.082       .  S
C2125      C2126   1.410       .  A
C2126      N2127   1.434       .  S
N2127      H2131   1.045       .  S
N2127      H2132   1.046       .  S
N2130      H2133   1.045       .  S
N2130      H2134   1.046       .  S
C2135      C2136   1.397       .  A
C2135      C2140   1.396       .  A
C2135      H2142   1.084       .  S
C2136      C2137   1.411       .  A
C2137      C2138   1.417       .  A
C2137      N2144   1.437       .  S
C2138      C2139   1.408       .  A
C2138      H2143   1.083       .  S
C2139      C2140   1.410       .  A
C2140      N2141   1.427       .  S
N2141      H2145   1.046       .  S
N2141      H2146   1.046       .  S
N2144      H2147   1.046       .  S
N2144      H2148   1.045       .  S
C2149      C2150   1.412       .  A
C2149      C2154   1.404       .  A
C2149      H2156   1.083       .  S
C2150      C2151   1.416       .  A
C2151      C2152   1.408       .  A
C2151      N2158   1.432       .  S
C2152      C2153   1.406       .  A
C2152      H2157   1.084       .  S
C2153      C2154   1.409       .  A
C2154      N2155   1.432       .  S
N2155      H2159   1.045       .  S
N2155      H2160   1.046       .  S
N2158      H2161   1.045       .  S
N2158      H2162   1.046       .  S
C2163      C2164   1.397       .  A
C2163      C2168   1.402       .  A
C2163      H2170   1.078       .  S
C2164      C2165   1.402       .  A
C2165      C2166   1.400       .  A
C2165      N2172   1.433       .  S
C2166      C2167   1.414       .  A
C2166      H2171   1.081       .  S
C2167      C2168   1.416       .  A
C2168      N2169   1.430       .  S
N2169      H2173   1.046       .  S
N2169      H2174   1.046       .  S
N2172      H2175   1.046       .  S
N2172      H2176   1.046       .  S
C2177      C2178   1.411       .  A
C2177      C2182   1.397       .  A
C2177      H2184   1.079       .  S
C2178      C2179   1.416       .  A
C2179      C2180   1.407       .  A
C2179      N2186   1.433       .  S
C2180      C2181   1.405       .  A
C2180      H2185   1.084       .  S
C2181      C2182   1.414       .  A
C2182      N2183   1.433       .  S
N2183      H2187   1.045       .  S
N2183      H2188   1.045       .  S
N2186      H2189   1.046       .  S
N2186      H2190   1.045       .  S
C2191      C2192   1.402       .  A
C2191      C2196   1.402       .  A
C2191      H2198   1.084       .  S
C2192      C2193   1.411       .  A
C2193      C2194   1.399       .  A
C2193      N2200   1.433       .  S
C2194      C2195   1.399       .  A
C2194      H2199   1.083       .  S
C2195      C2196   1.415       .  A
C2196      N2197   1.435       .  S
N2197      H2201   1.044       .  S
N2197      H2202   1.043       .  S
N2200      H2203   1.046       .  S
N2200      H2204   1.045       .  S
C2205      C2206   1.406       .  A
C2205      C2210   1.410       .  A
C2205      H2212   1.084       .  S
C2206      C2207   1.409       .  A
C2207      C2208   1.403       .  A
C2207      N2214   1.432       .  S
C2208      C2209   1.404       .  A
C2208      H2213   1.084       .  S
C2209      C2210   1.414       .  A
C2210      N2211   1.432       .  S
N2211      H2215   1.046       .  S
N2211      H2216   1.046       .  S
N2214      H2217   1.046       .  S
N2214      H2218   1.045       .  S
C2219      C2220   1.412       .  A
C2219      C2224   1.411       .  A
C2219      H2226   1.080       .  S
C2220      C2221   1.416       .  A
C2221      C2222   1.409       .  A
C2221      N2228   1.433       .  S
C2222      C2223   1.405       .  A
C2222      H2227   1.084       .  S
C2223      C2224   1.414       .  A
C2224      N2225   1.438       .  S
N2225      H2229   1.045       .  S
N2225      H2230   1.046       .  S
N2228      H2231   1.046       .  S
N2228      H2232   1.045       .  S
C2233      C2234   1.410       .  A
C2233      C2238   1.399       .  A
C2233      H2240   1.082       .  S
C2234      C2235   1.411       .  A
C2235      C2236   1.404       .  A
C2235      N2242   1.432       .  S
C2236      C2237   1.402       .  A
C2236      H2241   1.078       .  S
C2237      C2238   1.402       .  A
C2238      N2239   1.432       .  S
N2239      H2243   1.046       .  S
N2239      H2244   1.046       .  S
N2242      H2245   1.046       .  S
N2242      H2246   1.046       .  S
C2247      C2248   1.401       .  A
C2247      C2252   1.400       .  A
C2247      H2254   1.084       .  S
C2248      C2249   1.412       .  A
C2249      C2250   1.400       .  A
C2249      N2256   1.438       .  S
C2250      C2251   1.405       .  A
C2250      H2255   1.084       .  S
C2251      C2252   1.415       .  A
C2252      N2253   1.429       .  S
N2253      H2257   1.042       .  S
N2253      H2258   1.044       .  S
N2256      H2259   1.044       .  S
N2256      H2260   1.046       .  S
C2261      C2262   1.411       .  A
C2261      C2266   1.404       .  A
C2261      H2268   1.081       .  S
C2262      C2263   1.424       .  A
C2263      C2264   1.405       .  A
C2263      N2270   1.438       .  S
C2264      C2265   1.404       .  A
C2264      H2269   1.084       .  S
C2265      C2266   1.411       .  A
C2266      N2267   1.438       .  S
N2267      H2271   1.045       .  S
N2267      H2272   1.046       .  S
N2270      H2273   1.043       .  S
N2270      H2274   1.045       .  S
C2275      C2276   1.404       .  A
C2275      C2280   1.395       .  A
C2275      H2282   1.080       .  S
C2276      C2277   1.420       .  A
C2277      C2278   1.408       .  A
C2277      N2284   1.437       .  S
C2278      C2279   1.404       .  A
C2278      H2283   1.084       .  S
C2279      C2280   1.415       .  A
C2280      N2281   1.428       .  S
N2281      H2285   1.034       .  S
N2281      H2286   1.044       .  S
N2284      H2287   1.046       .  S
N2284      H2288   1.046       .  S
C2289      C2290   1.404       .  A
C2289      C2294   1.404       .  A
C2289      H2296   1.084       .  S
C2290      C2291   1.412       .  A
C2291      C2292   1.408       .  A
C2291      N2298   1.432       .  S
C2292      C2293   1.404       .  A
C2292      H2297   1.084       .  S
C2293      C2294   1.410       .  A
C2294      N2295   1.432       .  S
N2295      H2299   1.045       .  S
N2295      H2300   1.046       .  S
N2298      H2301   1.045       .  S
N2298      H2302   1.046       .  S
C2303      C2304   1.408       .  A
C2303      C2308   1.398       .  A
C2303      H2310   1.083       .  S
C2304      C2305   1.416       .  A
C2305      C2306   1.407       .  A
C2305      N2312   1.433       .  S
C2306      C2307   1.406       .  A
C2306      H2311   1.084       .  S
C2307      C2308   1.418       .  A
C2308      N2309   1.432       .  S
N2309      H2313   1.045       .  S
N2309      H2314   1.045       .  S
N2312      H2315   1.045       .  S
N2312      H2316   1.046       .  S
C2317      C2318   1.402       .  A
C2317      C2322   1.402       .  A
C2317      H2324   1.083       .  S
C2318      C2319   1.418       .  A
C2319      C2320   1.404       .  A
C2319      N2326   1.438       .  S
C2320      C2321   1.399       .  A
C2320      H2325   1.084       .  S
C2321      C2322   1.408       .  A
C2322      N2323   1.428       .  S
N2323      H2327   1.045       .  S
N2323      H2328   1.046       .  S
N2326      H2329   1.045       .  S
N2326      H2330   1.046       .  S
C2331      C2332   1.405       .  A
C2331      C2336   1.400       .  A
C2331      H2338   1.084       .  S
C2332      C2333   1.410       .  A
C2333      C2334   1.400       .  A
C2333      N2340   1.431       .  S
C2334      C2335   1.403       .  A
C2334      H2339   1.083       .  S
C2335      C2336   1.407       .  A
C2336      N2337   1.432       .  S
N2337      H2341   1.046       .  S
N2337      H2342   1.045       .  S
N2340      H2343   1.045       .  S
N2340      H2344   1.045       .  S
C2345      C2346   1.409       .  A
C2345      C2350   1.403       .  A
C2345      H2352   1.082       .  S
C2346      C2347   1.425       .  A
C2347      C2348   1.406       .  A
C2347      N2354   1.437       .  S
C2348      C2349   1.404       .  A
C2348      H2353   1.084       .  S
C2349      C2350   1.411       .  A
C2350      N2351   1.433       .  S
N2351      H2355   1.046       .  S
N2351      H2356   1.046       .  S
N2354      H2357   1.045       .  S
N2354      H2358   1.044       .  S
C2359      C2360   1.407       .  A
C2359      C2364   1.397       .  A
C2359      H2366   1.084       .  S
C2360      C2361   1.416       .  A
C2361      C2362   1.400       .  A
C2361      N2368   1.433       .  S
C2362      C2363   1.402       .  A
C2362      H2367   1.082       .  S
C2363      C2364   1.407       .  A
C2364      N2365   1.433       .  S
N2365      H2369   1.045       .  S
N2365      H2370   1.046       .  S
N2368      H2371   1.045       .  S
N2368      H2372   1.042       .  S
C2373      C2374   1.396       .  A
C2373      C2378   1.393       .  A
C2373      H2380   1.081       .  S
C2374      C2375   1.411       .  A
C2375      C2376   1.402       .  A
C2375      N2382   1.432       .  S
C2376      C2377   1.404       .  A
C2376      H2381   1.084       .  S
C2377      C2378   1.408       .  A
C2378      N2379   1.431       .  S
N2379      H2383   1.045       .  S
N2379      H2384   1.046       .  S
N2382      H2385   1.044       .  S
N2382      H2386   1.045       .  S
C2387      C2388   1.405       .  A
C2387      C2392   1.408       .  A
C2387      H2394   1.084       .  S
C2388      C2389   1.409       .  A
C2389      C2390   1.402       .  A
C2389      N2396   1.432       .  S
C2390      C2391   1.403       .  A
C2390      H2395   1.084       .  S
C2391      C2392   1.411       .  A
C2392      N2393   1.432       .  S
N2393      H2397   1.046       .  S
N2393      H2398   1.045       .  S
N2396      H2399   1.046       .  S
N2396      H2400   1.045       .  S
C2401      C2402   1.409       .  A
C2401      C2406   1.401       .  A
C2401      H2408   1.080       .  S
C2402      C2403   1.420       .  A
C2403      C2404   1.411       .  A
C2403      N2410   1.438       .  S
C2404      C2405   1.405       .  A
C2404      H2409   1.083       .  S
C2405      C2406   1.410       .  A
C2406      N2407   1.433       .  S
N2407      H2411   1.046       .  S
N2407      H2412   1.046       .  S
N2410      H2413   1.045       .  S
N2410      H2414   1.046       .  S
C2415      C2416   1.397       .  A
C2415      C2420   1.394       .  A
C2415      H2422   1.084       .  S
C2416      C2417   1.417       .  A
C2417      C2418   1.419       .  A
C2417      N2424   1.437       .  S
C2418      C2419   1.410       .  A
C2418      H2423   1.079       .  S
C2419      C2420   1.421       .  A
C2420      N2421   1.435       .  S
N2421      H2425   1.046   1_545  S
N2421      H2426   1.046       .  S
N2424      H2427   1.046       .  S
N2424      H2428   1.046       .  S
C2429      C2430   1.409       .  A
C2429      C2434   1.413       .  A
C2429      H2436   1.081       .  S
C2430      C2431   1.426       .  A
C2431      C2432   1.397       .  A
C2431      N2438   1.434   1_556  S
C2432      C2433   1.394       .  A
C2432      H2437   1.084   1_556  S
C2433      C2434   1.411       .  A
C2434      N2435   1.431       .  S
N2435      H2439   1.045       .  S
N2435      H2440   1.045       .  S
N2438      H2441   1.046       .  S
N2438      H2442   1.045       .  S
C2443      C2444   1.402       .  A
C2443      C2448   1.404       .  A
C2443      H2450   1.084       .  S
C2444      C2445   1.403       .  A
C2445      C2446   1.394       .  A
C2445      N2452   1.434   1_554  S
C2446      C2447   1.415       .  A
C2446      H2451   1.085       .  S
C2447      C2448   1.426       .  A
C2448      N2449   1.427       .  S
N2449      H2453   1.045       .  S
N2449      H2454   1.043       .  S
N2452      H2455   1.046       .  S
N2452      H2456   1.046       .  S
C2457      C2458   1.406       .  A
C2457      C2462   1.407       .  A
C2457      H2464   1.084       .  S
C2458      C2459   1.417       .  A
C2459      C2460   1.397       .  A
C2459      N2466   1.433       .  S
C2460      C2461   1.409       .  A
C2460      H2465   1.080       .  S
C2461      C2462   1.415       .  A
C2462      N2463   1.433       .  S
N2463      H2467   1.045       .  S
N2463      H2468   1.046       .  S
N2466      H2469   1.045       .  S
N2466      H2470   1.045       .  S
C2471      C2472   1.404       .  A
C2471      C2476   1.411       .  A
C2471      H2478   1.083       .  S
C2472      C2473   1.412       .  A
C2473      C2474   1.403       .  A
C2473      N2480   1.432       .  S
C2474      C2475   1.408       .  A
C2474      H2479   1.081       .  S
C2475      C2476   1.422       .  A
C2476      N2477   1.438       .  S
N2477      H2481   1.045       .  S
N2477      H2482   1.045       .  S
N2480      H2483   1.046       .  S
N2480      H2484   1.046       .  S
C2485      C2486   1.394       .  A
C2485      C2490   1.391       .  A
C2485      H2492   1.085       .  S
C2486      C2487   1.416       .  A
C2487      C2488   1.411       .  A
C2487      N2494   1.431       .  S
C2488      C2489   1.409       .  A
C2488      H2493   1.080       .  S
C2489      C2490   1.423       .  A
C2490      N2491   1.435       .  S
N2491      H2495   1.046       .  S
N2491      H2496   1.046       .  S
N2494      H2497   1.045       .  S
N2494      H2498   1.046       .  S
C2499      C2500   1.405       .  A
C2499      C2504   1.407       .  A
C2499      H2506   1.083       .  S
C2500      C2501   1.409       .  A
C2501      C2502   1.399       .  A
C2501      N2508   1.433   1_455  S
C2502      C2503   1.411       .  A
C2502      H2507   1.074       .  S
C2503      C2504   1.425       .  A
C2504      N2505   1.434       .  S
N2505      H2509   1.043       .  S
N2505      H2510   1.045       .  S
N2508      H2511   1.045   1_655  S
N2508      H2512   1.046       .  S
C2513      C2514   1.399   1_545  A
C2513      C2518   1.396       .  A
C2513      H2520   1.084       .  S
C2514      C2515   1.417       .  A
C2515      C2516   1.410       .  A
C2515      N2522   1.432       .  S
C2516      C2517   1.411       .  A
C2516      H2521   1.079       .  S
C2517      C2518   1.420   1_565  A
C2518      N2519   1.434       .  S
N2519      H2523   1.046       .  S
N2519      H2524   1.045       .  S
N2522      H2525   1.046       .  S
N2522      H2526   1.045       .  S
C2527      C2528   1.389       .  A
C2527      C2532   1.385       .  A
C2527      H2534   1.085       .  S
C2528      C2529   1.415       .  A
C2529      C2530   1.413       .  A
C2529      N2536   1.431       .  S
C2530      C2531   1.411       .  A
C2530      H2535   1.081       .  S
C2531      C2532   1.437       .  A
C2532      N2533   1.436       .  S
N2533      H2537   1.043       .  S
N2533      H2538   1.040       .  S
N2536      H2539   1.046       .  S
N2536      H2540   1.045       .  S
C2541      C2542   1.397       .  A
C2541      C2546   1.392       .  A
C2541      H2548   1.084   1_556  S
C2542      C2543   1.418       .  A
C2543      C2544   1.419       .  A
C2543      N2550   1.437       .  S
C2544      C2545   1.409       .  A
C2544      H2549   1.080       .  S
C2545      C2546   1.420       .  A
C2546      N2547   1.435   1_556  S
N2547      H2551   1.046       .  S
N2547      H2552   1.045       .  S
N2550      H2553   1.045       .  S
N2550      H2554   1.046       .  S
C2555      C2556   1.404       .  A
C2555      C2560   1.406       .  A
C2555      H2562   1.084       .  S
C2556      C2557   1.411       .  A
C2557      C2558   1.406       .  A
C2557      N2564   1.439       .  S
C2558      C2559   1.412       .  A
C2558      H2563   1.076       .  S
C2559      C2560   1.415       .  A
C2560      N2561   1.433       .  S
N2561      H2565   1.046       .  S
N2561      H2566   1.045       .  S
N2564      H2567   1.046       .  S
N2564      H2568   1.046       .  S
