geometry optimzed in LAMMPS
_audit_creation_date              2020-11-30 
_audit_creation_method            'lammps2cif' 
_symmetry_space_group_name_H-M    'P1' 
_symmetry_Int_Tables_number       1 
_symmetry_cell_setting            triclinic 
loop_ 
_symmetry_equiv_pos_as_xyz 
  x,y,z 
_cell_length_a                    42.85846375846379 
_cell_length_b                    42.812189486583456 
_cell_length_c                    41.66878265022265 
_cell_angle_alpha                 90.03546779178484 
_cell_angle_beta                  90.09273108579018 
_cell_angle_gamma                 89.70982249858223 
loop_ 
_atom_site_label 
_atom_site_type_symbol 
_atom_site_fract_x 
_atom_site_fract_y 
_atom_site_fract_z 
_atom_site_charge 
O1          O  0.52307549  0.03274331  0.46583364    -0.73180
O2          O  0.52370935  0.96620760  0.03355585    -0.74100
O3          O  0.52355462  0.96624236  0.46571875    -0.62720
O4          O  0.52324318  0.03265223  0.03386504    -0.71130
O5          O  0.47168474  0.03258602  0.03380157    -0.70680
O6          O  0.47175516  0.96677768  0.46543859    -0.61930
O7          O  0.47199141  0.96628171  0.03367437    -0.74440
O8          O  0.47153991  0.03289144  0.46596959    -0.73220
Cu9        Cu  0.52519726  0.99945560  0.99974575     1.04560
Cu10       Cu  0.46996554  0.99959465  0.49974020     1.04330
C11         C  0.49720212  0.04357879  0.45516053     0.93080
C12         C  0.49795154  0.95561081  0.04424648     0.92220
C13         C  0.49763365  0.95628797  0.45465368     0.84370
C14         C  0.49736136  0.04322599  0.04471428     0.90640
N15         N  0.49926450  0.17095862  0.31597152    -0.27460
N16         N  0.50216120  0.14491871  0.29918522    -0.35320
C17         C  0.50345565  0.12046712  0.31924858     0.00880
C18         C  0.50119831  0.13159108  0.35018926     0.06900
C19         C  0.49836396  0.16369597  0.34743422    -0.06200
H20         H  0.50561379  0.09633252  0.31182865     0.07570
H21         H  0.49605815  0.18044973  0.36674128     0.08770
Cu22       Cu  0.50363523  0.14341131  0.24984233     0.44170
Cu23       Cu  0.49761445  0.21444323  0.29397120     0.41990
Cu24       Cu  0.50636838  0.21458072  0.20521550     0.43880
N25         N  0.50461187  0.14485580  0.20048468    -0.34850
N26         N  0.50637103  0.17086337  0.18353830    -0.29100
C27         C  0.50640072  0.16346523  0.15208104    -0.05200
C28         C  0.50440243  0.13129168  0.14951230     0.07010
C29         C  0.50316405  0.12031294  0.18054226     0.00810
H30         H  0.50700235  0.18019990  0.13265216     0.08460
H31         H  0.50113524  0.09623657  0.18809733     0.07540
N32         N  0.50235566  0.25423670  0.23376013    -0.36300
N33         N  0.49865507  0.25412230  0.26531441    -0.28480
C34         C  0.49632771  0.28376357  0.27573664    -0.03720
C35         C  0.49842873  0.30344050  0.24955442     0.04890
C36         C  0.50259752  0.28398451  0.22341625     0.02990
H37         H  0.49414711  0.29041009  0.30067644     0.08090
H38         H  0.50543437  0.29094278  0.19863626     0.06920
N39         N  0.50435504  0.82789275  0.31641262    -0.27460
N40         N  0.50968510  0.85348746  0.29967424    -0.35320
C41         C  0.51024022  0.87813269  0.31949262     0.00880
C42         C  0.50512919  0.86780161  0.35043441     0.06900
C43         C  0.50135022  0.83569747  0.34762858    -0.06200
H44         H  0.51324689  0.90205320  0.31176957     0.07570
H45         H  0.49534532  0.81942187  0.36641568     0.08770
Cu46       Cu  0.51238326  0.85500249  0.25037807     0.44170
Cu47       Cu  0.49977980  0.78450924  0.29438045     0.41990
Cu48       Cu  0.50084582  0.78564969  0.20508564     0.43880
N49         N  0.50791605  0.85494060  0.20117735    -0.34850
N50         N  0.50353526  0.82945521  0.18391260    -0.29100
C51         C  0.49997485  0.83767326  0.15288805    -0.05200
C52         C  0.50172340  0.86992197  0.15093852     0.07010
C53         C  0.50707741  0.88000714  0.18190663     0.00810
H54         H  0.49559257  0.82153920  0.13342288     0.08460
H55         H  0.50992740  0.90384975  0.18995592     0.07540
N56         N  0.49788109  0.74570958  0.23321909    -0.36300
N57         N  0.49742403  0.74521829  0.26499551    -0.28480
C58         C  0.49620502  0.71534100  0.27487285    -0.03720
C59         C  0.49549887  0.69614637  0.24814493     0.04890
C60         C  0.49694015  0.71621367  0.22218903     0.02990
H61         H  0.49617113  0.70808210  0.29974250     0.08090
H62         H  0.49854105  0.70997365  0.19710909     0.06920
O63         O  0.96622845  0.52246408  0.46743283    -0.73120
O64         O  0.03262377  0.52318577  0.03569835    -0.74100
O65         O  0.03245917  0.52470457  0.46781517    -0.62720
O66         O  0.96624135  0.52083682  0.03559575    -0.71130
O67         O  0.96678433  0.46917375  0.03313182    -0.70680
O68         O  0.03523075  0.47297882  0.46728976    -0.61930
O69         O  0.03324533  0.47129977  0.03565540    -0.74440
O70         O  0.96947842  0.47071514  0.46502123    -0.73220
Cu71       Cu  0.99929285  0.52459881  0.00171214     1.04560
Cu72       Cu  0.00125979  0.46922826  0.00028766     1.04330
C73         C  0.95797012  0.49649122  0.45501909     0.93080
C74         C  0.04319680  0.49732198  0.04654056     0.92220
C75         C  0.04439543  0.49947594  0.45688116     0.84370
C76         C  0.95600499  0.49444576  0.04519223     0.90640
N77         N  0.16963408  0.50950078  0.31701970    -0.27460
N78         N  0.14427469  0.51361567  0.29945752    -0.35320
C79         C  0.11905856  0.51250414  0.31847172     0.00880
C80         C  0.12897718  0.50731402  0.34956713     0.06900
C81         C  0.16122448  0.50587312  0.34793823    -0.06200
H82         H  0.09524263  0.51484076  0.31014782     0.07570
H83         H  0.17724039  0.50142949  0.36752330     0.08770
Cu84       Cu  0.14492193  0.51733005  0.25012182     0.44170
Cu85       Cu  0.21352117  0.50633557  0.29630894     0.41990
Cu86       Cu  0.21447511  0.49511648  0.20790119     0.43880
N87         N  0.14687438  0.51182940  0.20100256    -0.34850
N88         N  0.17175173  0.50218923  0.18512061    -0.29100
C89         C  0.16379850  0.49761653  0.15413200    -0.05200
C90         C  0.13234208  0.50500709  0.15044581     0.07010
C91         C  0.12263306  0.51389393  0.18078581     0.00810
H92         H  0.17943156  0.48809561  0.13630246     0.08460
H93         H  0.09922355  0.52032273  0.18799004     0.07540
N94         N  0.25379179  0.49548388  0.23735344    -0.36300
N95         N  0.25339934  0.50054392  0.26868060    -0.28480
C96         C  0.28289470  0.50167698  0.27958777    -0.03720
C97         C  0.30302897  0.49654316  0.25410720     0.04890
C98         C  0.28361842  0.49296791  0.22769837     0.02990
H99         H  0.28885760  0.50730599  0.30406481     0.08090
H100        H  0.29068323  0.48934840  0.20305228     0.06920
N101        N  0.83145991  0.49673421  0.31461897    -0.27460
N102        N  0.85626734  0.50523780  0.29813406    -0.35320
C103        C  0.88079188  0.50727886  0.31803145     0.00880
C104        C  0.87116885  0.49975887  0.34877176     0.06900
C105        C  0.83962818  0.49297165  0.34562191    -0.06200
H106        H  0.90414085  0.51334222  0.31051716     0.07570
H107        H  0.82391639  0.48477764  0.36396380     0.08770
Cu108      Cu  0.85650537  0.51105755  0.24897249     0.44170
Cu109      Cu  0.78812929  0.49116259  0.29306474     0.41990
Cu110      Cu  0.78486317  0.50609323  0.20545968     0.43880
N111        N  0.85425982  0.51001585  0.19950181    -0.34850
N112        N  0.82800974  0.50830774  0.18294604    -0.29100
C113        C  0.83494907  0.50576995  0.15148493    -0.05200
C114        C  0.86715115  0.50579869  0.14839356     0.07010
C115        C  0.87852633  0.50836766  0.17928796     0.00810
H116        H  0.81794003  0.50255376  0.13258120     0.08460
H117        H  0.90275183  0.50808052  0.18663449     0.07540
N118        N  0.74625768  0.50068477  0.23504379    -0.36300
N119        N  0.74745934  0.49412201  0.26603434    -0.28480
C120        C  0.71822821  0.49156152  0.27734694    -0.03720
C121        C  0.69741276  0.49740557  0.25249892     0.04890
C122        C  0.71621807  0.50280402  0.22602396     0.02990
H123        H  0.71299934  0.48532175  0.30180201     0.08090
H124        H  0.70862909  0.50820376  0.20187132     0.06920
O125        O  0.54699643  0.49867732  0.27492884    -0.73120
O126        O  0.45343619  0.49990232  0.27541084    -0.74100
O127        O  0.49961949  0.45257739  0.27494170    -0.62720
O128        O  0.50069489  0.54613515  0.27567175    -0.71130
O129        O  0.49899809  0.54661023  0.22246051    -0.70680
O130        O  0.50087839  0.45292997  0.22165708    -0.61930
O131        O  0.45315564  0.49921026  0.22227727    -0.74440
O132        O  0.54666927  0.50024782  0.22185733    -0.73220
Cu133      Cu  0.50020982  0.49933199  0.27709603     1.04560
Cu134      Cu  0.49991581  0.49978086  0.22020206     1.04330
C135        C  0.56174935  0.49920702  0.24828287     0.93080
C136        C  0.43841369  0.49958614  0.24888101     0.92220
C137        C  0.50037467  0.43804066  0.24819588     0.84370
C138        C  0.49986077  0.56115927  0.24922558     0.90640
C139        C  0.64721789  0.48756958  0.22476132    -0.20480
C140        C  0.66264691  0.49731346  0.25278123    -0.07040
C141        C  0.64456724  0.50826432  0.27899419     0.13820
C142        C  0.61189124  0.50857051  0.27648809    -0.20530
C143        C  0.59648095  0.49875830  0.24848169    -0.07050
C144        C  0.61458617  0.48839006  0.22204602     0.13810
C145        C  0.60009631  0.47777606  0.19090649    -0.23880
H146        H  0.66085454  0.47915862  0.20463230     0.15100
H147        H  0.59822844  0.51693402  0.29663654     0.15130
C148        C  0.65902990  0.52084086  0.30932995    -0.23830
H149        H  0.61789206  0.46928901  0.17357547     0.05340
H150        H  0.58755313  0.49753543  0.17935117     0.08570
H151        H  0.58374582  0.45831066  0.19543829     0.08570
H152        H  0.67692797  0.53859762  0.30348137     0.08550
H153        H  0.66937190  0.50150055  0.32347516     0.08550
H154        H  0.64140327  0.53227631  0.32499920     0.05330
C155        C  0.35248180  0.51064754  0.22701795    -0.20480
C156        C  0.33772699  0.49745153  0.25383848    -0.07040
C157        C  0.35639283  0.48458800  0.27869044     0.13820
C158        C  0.38901695  0.48578753  0.27614773    -0.20530
C159        C  0.40375667  0.49907660  0.24939073    -0.07050
C160        C  0.38511536  0.51159584  0.22435186     0.13810
C161        C  0.39914301  0.52669600  0.19506623    -0.23880
H162        H  0.33832818  0.52058247  0.20798351     0.15100
H163        H  0.40318905  0.47584538  0.29517979     0.15130
C164        C  0.34255810  0.46835791  0.30740263    -0.23830
H165        H  0.38097706  0.53671929  0.17899711     0.05340
H166        H  0.41234165  0.50910017  0.18091843     0.08570
H167        H  0.41485811  0.54597373  0.20242170     0.08570
H168        H  0.32539285  0.45059206  0.29950780     0.08550
H169        H  0.33137059  0.48561630  0.32353850     0.08550
H170        H  0.36070139  0.45613342  0.32181779     0.05330
C171        C  0.09692320  0.50790983  0.06604774    -0.20480
C172        C  0.06658891  0.49756700  0.07248283    -0.07040
C173        C  0.05861815  0.48847544  0.10385101     0.13820
C174        C  0.08099504  0.49023840  0.12824907    -0.20530
C175        C  0.11140272  0.50089002  0.12225031    -0.07050
C176        C  0.11963252  0.50940979  0.09048878     0.13810
C177        C  0.15169059  0.52111065  0.08222122    -0.23880
H178        H  0.10280682  0.51486177  0.04179254     0.15100
H179        H  0.07454075  0.48332140  0.15234393     0.15130
C180        C  0.02627717  0.47746074  0.11176902    -0.23830
H181        H  0.15302923  0.52903506  0.05688000     0.05340
H182        H  0.16905203  0.50207069  0.08518709     0.08570
H183        H  0.15783329  0.54118375  0.09783584     0.08570
H184        H  0.02154094  0.45572064  0.09820793     0.08550
H185        H  0.00886569  0.49566328  0.10515366     0.08550
H186        H  0.02357908  0.47228771  0.13773343     0.05330
C187        C  0.11181723  0.52483744  0.40341412    -0.20480
C188        C  0.10900628  0.50346962  0.37810405    -0.07040
C189        C  0.08651802  0.47952881  0.37992477     0.13820
C190        C  0.06649942  0.47832903  0.40648035    -0.20530
C191        C  0.06802031  0.50075979  0.43101393    -0.07050
C192        C  0.09141195  0.52400380  0.42977645     0.13810
C193        C  0.09544056  0.54758791  0.45632550    -0.23880
H194        H  0.12945885  0.54284413  0.40204255     0.15100
H195        H  0.04890776  0.46025977  0.40760985     0.15130
C196        C  0.08392132  0.45484175  0.35425433    -0.23830
H197        H  0.11617924  0.56254285  0.45234515     0.05340
H198        H  0.09859703  0.53535601  0.47960951     0.08570
H199        H  0.07475720  0.56321170  0.45758016     0.08570
H200        H  0.10672381  0.44275410  0.35132985     0.08550
H201        H  0.07689464  0.46556967  0.33112940     0.08550
H202        H  0.06617761  0.43700457  0.36040366     0.05330
C203        C  0.90814582  0.47604226  0.12014576    -0.20480
C204        C  0.88631255  0.50046033  0.11944536    -0.07040
C205        C  0.88566890  0.52091716  0.09297343     0.13820
C206        C  0.90820998  0.51752069  0.06875523    -0.20530
C207        C  0.93115787  0.49388060  0.07003416    -0.07050
C208        C  0.93040438  0.47215159  0.09582183     0.13810
C209        C  0.95298682  0.44534201  0.10007844    -0.23880
H210        H  0.90836199  0.46022006  0.14048209     0.15100
H211        H  0.90824974  0.53385924  0.04888382     0.15130
C212        C  0.86224295  0.54717852  0.09092125    -0.23830
H213        H  0.93988565  0.42303302  0.10018026     0.05340
H214        H  0.96514353  0.44776710  0.12349874     0.08570
H215        H  0.97102763  0.44357307  0.08143467     0.08570
H216        H  0.86454808  0.56266238  0.11216827     0.08550
H217        H  0.83828631  0.53751912  0.09005061     0.08550
H218        H  0.86566415  0.56156852  0.06904701     0.05330
C219        C  0.90521550  0.50770612  0.43329838    -0.20480
C220        C  0.93549106  0.49625670  0.42828833    -0.07040
C221        C  0.94419706  0.48532975  0.39765703     0.13820
C222        C  0.92229069  0.48597426  0.37268053    -0.20530
C223        C  0.89180727  0.49736698  0.37740214    -0.07050
C224        C  0.88309344  0.50822001  0.40831080     0.13810
C225        C  0.85115203  0.52145851  0.41507711    -0.23880
H226        H  0.89887069  0.51619327  0.45694073     0.15100
H227        H  0.92917448  0.47770088  0.34913550     0.15130
C228        C  0.97698322  0.47419175  0.39092165    -0.23830
H229        H  0.84962406  0.53140948  0.43965669     0.05340
H230        H  0.83344940  0.50276852  0.41345911     0.08570
H231        H  0.84561856  0.54042638  0.39779708     0.08570
H232        H  0.98250480  0.45344004  0.40586251     0.08550
H233        H  0.99379019  0.49310437  0.39649198     0.08550
H234        H  0.98012083  0.46750908  0.36536315     0.05330
C235        C  0.51729402  0.64617804  0.26829392    -0.20480
C236        C  0.49620700  0.66156611  0.24782249    -0.07040
C237        C  0.47605478  0.64371458  0.22818755     0.13820
C238        C  0.47807317  0.61099462  0.22904678    -0.20530
C239        C  0.49921694  0.59565088  0.24943613    -0.07050
C240        C  0.51912715  0.61344832  0.26933054     0.13810
C241        C  0.54307259  0.59817938  0.29083105    -0.23880
H242        H  0.53271676  0.65989786  0.28330309     0.15100
H243        H  0.46260959  0.59722532  0.21411506     0.15130
C244        C  0.45137218  0.65877215  0.20744565    -0.23830
H245        H  0.55784354  0.61571374  0.30321458     0.05340
H246        H  0.55862648  0.58284693  0.27638919     0.08570
H247        H  0.53132288  0.58414090  0.30958549     0.08570
H248        H  0.46231512  0.67230147  0.18786742     0.08550
H249        H  0.43646653  0.67440441  0.22224874     0.08550
H250        H  0.43601276  0.64111475  0.19604494     0.05330
C251        C  0.52301018  0.35341155  0.23430376    -0.20480
C252        C  0.49833968  0.33792799  0.24950370    -0.07040
C253        C  0.47403285  0.35555544  0.26374852     0.13820
C254        C  0.47548549  0.38828522  0.26314465    -0.20530
C255        C  0.50022452  0.40368556  0.24808375    -0.07050
C256        C  0.52429657  0.38613601  0.23350419     0.13810
C257        C  0.55178541  0.40184597  0.21801401    -0.23880
H258        H  0.54156445  0.33980118  0.22337713     0.15100
H259        H  0.45695371  0.40198867  0.27400592     0.15130
C260        C  0.44586895  0.34012100  0.27828546    -0.23830
H261        H  0.56909797  0.38460619  0.20892944     0.05340
H262        H  0.56366909  0.41706002  0.23579021     0.08570
H263        H  0.54374706  0.41615144  0.19737900     0.08570
H264        H  0.45275370  0.32625265  0.29960738     0.08550
H265        H  0.43469181  0.32464227  0.26027661     0.08550
H266        H  0.42821104  0.35755921  0.28621012     0.05330
C267        C  0.47374931  0.09705121  0.11407808    -0.20480
C268        C  0.50202657  0.11201527  0.12037736    -0.07040
C269        C  0.52817624  0.10569289  0.10102035     0.13820
C270        C  0.52565219  0.08373501  0.07613660    -0.20530
C271        C  0.49752199  0.06783298  0.07008920    -0.07050
C272        C  0.47093296  0.07524288  0.08908502     0.13810
C273        C  0.43967805  0.05990391  0.08418475    -0.23880
H274        H  0.45386871  0.10207253  0.12933486     0.15100
H275        H  0.54603684  0.07865974  0.06166054     0.15130
C276        C  0.55902656  0.12122374  0.10741817    -0.23830
H277        H  0.42209779  0.06821962  0.10183471     0.05340
H278        H  0.44197784  0.03422321  0.08714361     0.08570
H279        H  0.43052438  0.06553343  0.05992133     0.08570
H280        H  0.56706596  0.11558568  0.13210172     0.08550
H281        H  0.55641159  0.14692314  0.10500238     0.08550
H282        H  0.57728667  0.11331240  0.09031906     0.05330
C283        C  0.52626157  0.07603664  0.41581891    -0.20480
C284        C  0.49742473  0.06829091  0.42986412    -0.07040
C285        C  0.47004363  0.08408757  0.41902798     0.13820
C286        C  0.47232121  0.10598910  0.39403000    -0.20530
C287        C  0.50091741  0.11233912  0.37940547    -0.07050
C288        C  0.52825953  0.09766603  0.39067610     0.13810
C289        C  0.55956505  0.10479063  0.37605496    -0.23880
H290        H  0.54744552  0.06461594  0.42397028     0.15100
H291        H  0.45147001  0.11744743  0.38499300     0.15130
C292        C  0.43822493  0.07812945  0.43308863    -0.23830
H293        H  0.57873101  0.09174540  0.38811597     0.05340
H294        H  0.56443486  0.13014765  0.37831994     0.08570
H295        H  0.55961274  0.09820930  0.35028980     0.08570
H296        H  0.43851415  0.08298452  0.45926606     0.08550
H297        H  0.43125351  0.05358254  0.42855902     0.08550
H298        H  0.42003991  0.09336899  0.42217401     0.05330
C299        C  0.47541340  0.93395570  0.09407628    -0.20480
C300        C  0.49802153  0.93163477  0.06984982    -0.07040
C301        C  0.52016653  0.90695618  0.07099195     0.13820
C302        C  0.51995627  0.88622423  0.09713782    -0.20530
C303        C  0.49854358  0.88987356  0.12224924    -0.07050
C304        C  0.47550188  0.91351424  0.12035315     0.13810
C305        C  0.45060180  0.91692855  0.14565639    -0.23880
H306        H  0.45811422  0.95248763  0.09295057     0.15100
H307        H  0.53724580  0.86770243  0.09854937     0.15130
C308        C  0.54366222  0.90193133  0.04457231    -0.23830
H309        H  0.43345333  0.93549134  0.13938547     0.05340
H310        H  0.46119530  0.92328605  0.16902632     0.08570
H311        H  0.43775275  0.89460781  0.14815997     0.08570
H312        H  0.56019126  0.92175843  0.04366449     0.08550
H313        H  0.53144040  0.89971452  0.02116480     0.08550
H314        H  0.55762248  0.88032315  0.04842352     0.05330
C315        C  0.48401662  0.91597868  0.37499294    -0.20480
C316        C  0.50127274  0.88824728  0.37889977    -0.07040
C317        C  0.51653228  0.88250434  0.40847839     0.13820
C318        C  0.51472409  0.90504528  0.43298640    -0.20530
C319        C  0.49765601  0.93279160  0.42879754    -0.07050
C320        C  0.48196201  0.93827402  0.39953038     0.13810
C321        C  0.46430236  0.96826826  0.39347747    -0.23880
H322        H  0.47239720  0.92046416  0.35231873     0.15100
H323        H  0.52679349  0.90109558  0.45552178     0.15130
C324        C  0.53583150  0.85349686  0.41394839    -0.23830
H325        H  0.45471042  0.96926393  0.36871589     0.05340
H326        H  0.48009623  0.98852273  0.39671856     0.08570
H327        H  0.44443373  0.97030542  0.41039469     0.08570
H328        H  0.55405927  0.85146154  0.39515218     0.08550
H329        H  0.52067922  0.83260766  0.41342719     0.08550
H330        H  0.54767322  0.85391772  0.43767909     0.05330
O331        O  0.52307550  0.03274330  0.96583364    -0.73180
O332        O  0.52370934  0.96620762  0.53355585    -0.74100
O333        O  0.52355462  0.96624235  0.96571875    -0.62720
O334        O  0.52324316  0.03265225  0.53386504    -0.71130
O335        O  0.47168473  0.03258603  0.53380157    -0.70680
O336        O  0.47175517  0.96677767  0.96543859    -0.61930
O337        O  0.47199141  0.96628173  0.53367437    -0.74440
O338        O  0.47153992  0.03289143  0.96596959    -0.73220
Cu339      Cu  0.52519724  0.99945562  0.49974574     1.04560
Cu340      Cu  0.46996555  0.99959464  0.99974020     1.04330
C341        C  0.49720214  0.04357877  0.95516053     0.93080
C342        C  0.49795153  0.95561082  0.54424648     0.92220
C343        C  0.49763366  0.95628795  0.95465368     0.84370
C344        C  0.49736135  0.04322600  0.54471428     0.90640
N345        N  0.49926450  0.17095862  0.81597153    -0.27460
N346        N  0.50216123  0.14491870  0.79918523    -0.35320
C347        C  0.50345570  0.12046712  0.81924858     0.00880
C348        C  0.50119834  0.13159107  0.85018927     0.06900
C349        C  0.49836395  0.16369596  0.84743423    -0.06200
H350        H  0.50561387  0.09633252  0.81182866     0.07570
H351        H  0.49605813  0.18044971  0.86674129     0.08770
Cu352      Cu  0.50363527  0.14341131  0.74984234     0.44170
Cu353      Cu  0.49761442  0.21444323  0.79397121     0.41990
Cu354      Cu  0.50636837  0.21458072  0.70521551     0.43880
N355        N  0.50461189  0.14485581  0.70048469    -0.34850
N356        N  0.50637103  0.17086337  0.68353831    -0.29100
C357        C  0.50640070  0.16346524  0.65208105    -0.05200
C358        C  0.50440242  0.13129169  0.64951231     0.07010
C359        C  0.50316407  0.12031294  0.68054227     0.00810
H360        H  0.50700231  0.18019990  0.63265217     0.08460
H361        H  0.50113527  0.09623657  0.68809734     0.07540
N362        N  0.50235564  0.25423670  0.73376015    -0.36300
N363        N  0.49865504  0.25412230  0.76531442    -0.28480
C364        C  0.49632768  0.28376357  0.77573665    -0.03720
C365        C  0.49842870  0.30344050  0.74955443     0.04890
C366        C  0.50259750  0.28398451  0.72341627     0.02990
H367        H  0.49414708  0.29041009  0.80067645     0.08090
H368        H  0.50543436  0.29094278  0.69863628     0.06920
N369        N  0.50435504  0.82789275  0.81641261    -0.27460
N370        N  0.50968509  0.85348746  0.79967423    -0.35320
C371        C  0.51024021  0.87813269  0.81949262     0.00880
C372        C  0.50512919  0.86780160  0.85043440     0.06900
C373        C  0.50135023  0.83569746  0.84762857    -0.06200
H374        H  0.51324687  0.90205320  0.81176957     0.07570
H375        H  0.49534534  0.81942186  0.86641568     0.08770
Cu376      Cu  0.51238325  0.85500250  0.75037806     0.44170
Cu377      Cu  0.49977982  0.78450923  0.79438044     0.41990
Cu378      Cu  0.50084583  0.78564969  0.70508563     0.43880
N379        N  0.50791604  0.85494060  0.70117734    -0.34850
N380        N  0.50353526  0.82945522  0.68391259    -0.29100
C381        C  0.49997485  0.83767326  0.65288804    -0.05200
C382        C  0.50172339  0.86992198  0.65093851     0.07010
C383        C  0.50707739  0.88000714  0.68190663     0.00810
H384        H  0.49559258  0.82153921  0.63342287     0.08460
H385        H  0.50992737  0.90384976  0.68995592     0.07540
N386        N  0.49788111  0.74570958  0.73321908    -0.36300
N387        N  0.49742405  0.74521829  0.76499549    -0.28480
C388        C  0.49620504  0.71534100  0.77487283    -0.03720
C389        C  0.49549889  0.69614637  0.74814491     0.04890
C390        C  0.49694016  0.71621367  0.72218902     0.02990
H391        H  0.49617115  0.70808209  0.79974249     0.08090
H392        H  0.49854106  0.70997365  0.69710908     0.06920
O393        O  0.96622845  0.52246409  0.96743283    -0.73120
O394        O  0.03262378  0.52318576  0.53569835    -0.74100
O395        O  0.03245917  0.52470459  0.96781517    -0.62720
O396        O  0.96624135  0.52083680  0.53559575    -0.71130
O397        O  0.96678434  0.46917373  0.53313181    -0.70680
O398        O  0.03523075  0.47297883  0.96728976    -0.61930
O399        O  0.03324533  0.47129975  0.53565540    -0.74440
O400        O  0.96947841  0.47071515  0.96502124    -0.73220
Cu401      Cu  0.99929286  0.52459880  0.50171214     1.04560
Cu402      Cu  0.00125980  0.46922825  0.50028765     1.04330
C403        C  0.95797011  0.49649123  0.95501909     0.93080
C404        C  0.04319680  0.49732196  0.54654056     0.92220
C405        C  0.04439543  0.49947595  0.95688116     0.84370
C406        C  0.95600499  0.49444574  0.54519222     0.90640
N407        N  0.16963407  0.50950078  0.81701970    -0.27460
N408        N  0.14427468  0.51361567  0.79945751    -0.35320
C409        C  0.11905855  0.51250414  0.81847172     0.00880
C410        C  0.12897716  0.50731402  0.84956713     0.06900
C411        C  0.16122447  0.50587312  0.84793822    -0.06200
H412        H  0.09524262  0.51484076  0.81014782     0.07570
H413        H  0.17724037  0.50142949  0.86752330     0.08770
Cu414      Cu  0.14492191  0.51733005  0.75012181     0.44170
Cu415      Cu  0.21352116  0.50633557  0.79630894     0.41990
Cu416      Cu  0.21447511  0.49511649  0.70790120     0.43880
N417        N  0.14687437  0.51182940  0.70100256    -0.34850
N418        N  0.17175172  0.50218923  0.68512061    -0.29100
C419        C  0.16379850  0.49761654  0.65413200    -0.05200
C420        C  0.13234208  0.50500709  0.65044581     0.07010
C421        C  0.12263305  0.51389393  0.68078581     0.00810
H422        H  0.17943156  0.48809562  0.63630245     0.08460
H423        H  0.09922354  0.52032271  0.68799004     0.07540
N424        N  0.25379178  0.49548389  0.73735344    -0.36300
N425        N  0.25339933  0.50054393  0.76868060    -0.28480
C426        C  0.28289469  0.50167699  0.77958778    -0.03720
C427        C  0.30302897  0.49654317  0.75410721     0.04890
C428        C  0.28361842  0.49296792  0.72769838     0.02990
H429        H  0.28885760  0.50730599  0.80406482     0.08090
H430        H  0.29068322  0.48934841  0.70305229     0.06920
N431        N  0.83145991  0.49673420  0.81461896    -0.27460
N432        N  0.85626734  0.50523779  0.79813405    -0.35320
C433        C  0.88079188  0.50727885  0.81803145     0.00880
C434        C  0.87116884  0.49975886  0.84877176     0.06900
C435        C  0.83962817  0.49297165  0.84562190    -0.06200
H436        H  0.90414085  0.51334221  0.81051715     0.07570
H437        H  0.82391638  0.48477763  0.86396379     0.08770
Cu438      Cu  0.85650537  0.51105753  0.74897248     0.44170
Cu439      Cu  0.78812928  0.49116259  0.79306473     0.41990
Cu440      Cu  0.78486317  0.50609323  0.70545967     0.43880
N441        N  0.85425982  0.51001582  0.69950180    -0.34850
N442        N  0.82800974  0.50830772  0.68294603    -0.29100
C443        C  0.83494907  0.50576993  0.65148492    -0.05200
C444        C  0.86715115  0.50579866  0.64839355     0.07010
C445        C  0.87852633  0.50836762  0.67928796     0.00810
H446        H  0.81794003  0.50255374  0.63258119     0.08460
H447        H  0.90275183  0.50808047  0.68663449     0.07540
N448        N  0.74625768  0.50068478  0.73504378    -0.36300
N449        N  0.74745933  0.49412202  0.76603434    -0.28480
C450        C  0.71822820  0.49156154  0.77734693    -0.03720
C451        C  0.69741276  0.49740558  0.75249892     0.04890
C452        C  0.71621807  0.50280403  0.72602395     0.02990
H453        H  0.71299933  0.48532176  0.80180200     0.08090
H454        H  0.70862908  0.50820378  0.70187132     0.06920
O455        O  0.54699642  0.49867732  0.77492884    -0.73120
O456        O  0.45343619  0.49990233  0.77541084    -0.74100
O457        O  0.49961948  0.45257739  0.77494171    -0.62720
O458        O  0.50069489  0.54613515  0.77567174    -0.71130
O459        O  0.49899808  0.54661022  0.72246050    -0.70680
O460        O  0.50087837  0.45292997  0.72165709    -0.61930
O461        O  0.45315563  0.49921026  0.72227727    -0.74440
O462        O  0.54666926  0.50024781  0.72185733    -0.73220
Cu463      Cu  0.50020981  0.49933200  0.77709603     1.04560
Cu464      Cu  0.49991580  0.49978086  0.72020206     1.04330
C465        C  0.56174934  0.49920702  0.74828287     0.93080
C466        C  0.43841369  0.49958614  0.74888101     0.92220
C467        C  0.50037466  0.43804066  0.74819589     0.84370
C468        C  0.49986077  0.56115926  0.74922558     0.90640
C469        C  0.64721789  0.48756960  0.72476131    -0.20480
C470        C  0.66264691  0.49731347  0.75278122    -0.07040
C471        C  0.64456723  0.50826433  0.77899419     0.13820
C472        C  0.61189123  0.50857051  0.77648809    -0.20530
C473        C  0.59648095  0.49875830  0.74848169    -0.07050
C474        C  0.61458616  0.48839007  0.72204602     0.13810
C475        C  0.60009631  0.47777607  0.69090649    -0.23880
H476        H  0.66085454  0.47915864  0.70463229     0.15100
H477        H  0.59822843  0.51693402  0.79663654     0.15130
C478        C  0.65902989  0.52084086  0.80932995    -0.23830
H479        H  0.61789206  0.46928902  0.67357547     0.05340
H480        H  0.58755312  0.49753543  0.67935117     0.08570
H481        H  0.58374582  0.45831066  0.69543828     0.08570
H482        H  0.67692796  0.53859763  0.80348137     0.08550
H483        H  0.66937190  0.50150055  0.82347515     0.08550
H484        H  0.64140326  0.53227631  0.82499920     0.05330
C485        C  0.35248179  0.51064755  0.72701796    -0.20480
C486        C  0.33772698  0.49745154  0.75383848    -0.07040
C487        C  0.35639282  0.48458800  0.77869044     0.13820
C488        C  0.38901694  0.48578753  0.77614774    -0.20530
C489        C  0.40375666  0.49907660  0.74939073    -0.07050
C490        C  0.38511535  0.51159585  0.72435186     0.13810
C491        C  0.39914301  0.52669602  0.69506624    -0.23880
H492        H  0.33832818  0.52058249  0.70798352     0.15100
H493        H  0.40318905  0.47584537  0.79517979     0.15130
C494        C  0.34255810  0.46835791  0.80740263    -0.23830
H495        H  0.38097705  0.53671931  0.67899712     0.05340
H496        H  0.41234164  0.50910019  0.68091843     0.08570
H497        H  0.41485810  0.54597374  0.70242172     0.08570
H498        H  0.32539284  0.45059206  0.79950779     0.08550
H499        H  0.33137058  0.48561629  0.82353850     0.08550
H500        H  0.36070138  0.45613341  0.82181779     0.05330
C501        C  0.09692320  0.50790984  0.56604775    -0.20480
C502        C  0.06658891  0.49756699  0.57248282    -0.07040
C503        C  0.05861817  0.48847539  0.60385100     0.13820
C504        C  0.08099505  0.49023836  0.62824906    -0.20530
C505        C  0.11140272  0.50089001  0.62225030    -0.07050
C506        C  0.11963252  0.50940981  0.59048879     0.13810
C507        C  0.15169057  0.52111071  0.58222123    -0.23880
H508        H  0.10280681  0.51486181  0.54179255     0.15100
H509        H  0.07454077  0.48332134  0.65234392     0.15130
C510        C  0.02627719  0.47746066  0.61176900    -0.23830
H511        H  0.15302920  0.52903514  0.55688001     0.05340
H512        H  0.16905203  0.50207077  0.58518709     0.08570
H513        H  0.15783325  0.54118381  0.59783586     0.08570
H514        H  0.02154098  0.45572056  0.59820790     0.08550
H515        H  0.00886570  0.49566319  0.60515366     0.08550
H516        H  0.02357911  0.47228761  0.63773342     0.05330
C517        C  0.11181722  0.52483744  0.90341412    -0.20480
C518        C  0.10900626  0.50346963  0.87810405    -0.07040
C519        C  0.08651800  0.47952882  0.87992477     0.13820
C520        C  0.06649940  0.47832904  0.90648035    -0.20530
C521        C  0.06802030  0.50075979  0.93101393    -0.07050
C522        C  0.09141194  0.52400380  0.92977645     0.13810
C523        C  0.09544057  0.54758790  0.95632550    -0.23880
H524        H  0.12945885  0.54284413  0.90204256     0.15100
H525        H  0.04890774  0.46025979  0.90760985     0.15130
C526        C  0.08392129  0.45484176  0.85425433    -0.23830
H527        H  0.11617924  0.56254284  0.95234516     0.05340
H528        H  0.09859703  0.53535600  0.97960951     0.08570
H529        H  0.07475721  0.56321170  0.95758017     0.08570
H530        H  0.10672378  0.44275411  0.85132985     0.08550
H531        H  0.07689462  0.46556969  0.83112939     0.08550
H532        H  0.06617758  0.43700458  0.86040366     0.05330
C533        C  0.90814582  0.47604223  0.62014575    -0.20480
C534        C  0.88631255  0.50046030  0.61944535    -0.07040
C535        C  0.88566890  0.52091713  0.59297342     0.13820
C536        C  0.90820998  0.51752066  0.56875523    -0.20530
C537        C  0.93115787  0.49388057  0.57003415    -0.07050
C538        C  0.93040439  0.47215157  0.59582183     0.13810
C539        C  0.95298683  0.44534199  0.60007843    -0.23880
H540        H  0.90836199  0.46022002  0.64048208     0.15100
H541        H  0.90824974  0.53385921  0.54888382     0.15130
C542        C  0.86224294  0.54717849  0.59092124    -0.23830
H543        H  0.93988566  0.42303300  0.60018025     0.05340
H544        H  0.96514353  0.44776708  0.62349874     0.08570
H545        H  0.97102764  0.44357305  0.58143467     0.08570
H546        H  0.86454807  0.56266234  0.61216827     0.08550
H547        H  0.83828631  0.53751908  0.59005060     0.08550
H548        H  0.86566415  0.56156849  0.56904700     0.05330
C549        C  0.90521548  0.50770609  0.93329839    -0.20480
C550        C  0.93549106  0.49625672  0.92828833    -0.07040
C551        C  0.94419708  0.48532980  0.89765703     0.13820
C552        C  0.92229070  0.48597430  0.87268053    -0.20530
C553        C  0.89180727  0.49736698  0.87740213    -0.07050
C554        C  0.88309342  0.50821997  0.90831081     0.13810
C555        C  0.85115199  0.52145842  0.91507713    -0.23880
H556        H  0.89887066  0.51619321  0.95694075     0.15100
H557        H  0.92917451  0.47770094  0.84913549     0.15130
C558        C  0.97698325  0.47419184  0.89092164    -0.23830
H559        H  0.84962401  0.53140939  0.93965672     0.05340
H560        H  0.83344939  0.50276841  0.91345913     0.08570
H561        H  0.84561850  0.54042629  0.89779711     0.08570
H562        H  0.98250485  0.45344013  0.90586249     0.08550
H563        H  0.99379020  0.49310448  0.89649199     0.08550
H564        H  0.98012087  0.46750919  0.86536314     0.05330
C565        C  0.51729404  0.64617804  0.76829390    -0.20480
C566        C  0.49620702  0.66156610  0.74782247    -0.07040
C567        C  0.47605479  0.64371458  0.72818753     0.13820
C568        C  0.47807318  0.61099462  0.72904676    -0.20530
C569        C  0.49921695  0.59565088  0.74943612    -0.07050
C570        C  0.51912716  0.61344831  0.76933052     0.13810
C571        C  0.54307260  0.59817937  0.79083103    -0.23880
H572        H  0.53271678  0.65989786  0.78330307     0.15100
H573        H  0.46260959  0.59722532  0.71411505     0.15130
C574        C  0.45137219  0.65877215  0.70744563    -0.23830
H575        H  0.55784356  0.61571373  0.80321456     0.05340
H576        H  0.55862648  0.58284692  0.77638917     0.08570
H577        H  0.53132289  0.58414090  0.80958547     0.08570
H578        H  0.46231513  0.67230147  0.68786740     0.08550
H579        H  0.43646654  0.67440442  0.72224872     0.08550
H580        H  0.43601277  0.64111476  0.69604493     0.05330
C581        C  0.52301017  0.35341154  0.73430378    -0.20480
C582        C  0.49833966  0.33792799  0.74950372    -0.07040
C583        C  0.47403283  0.35555544  0.76374852     0.13820
C584        C  0.47548547  0.38828522  0.76314465    -0.20530
C585        C  0.50022451  0.40368555  0.74808377    -0.07050
C586        C  0.52429656  0.38613601  0.73350422     0.13810
C587        C  0.55178541  0.40184596  0.71801405    -0.23880
H588        H  0.54156444  0.33980117  0.72337716     0.15100
H589        H  0.45695369  0.40198868  0.77400591     0.15130
C590        C  0.44586892  0.34012100  0.77828545    -0.23830
H591        H  0.56909797  0.38460618  0.70892949     0.05340
H592        H  0.56366908  0.41706002  0.73579025     0.08570
H593        H  0.54374707  0.41615144  0.69737903     0.08570
H594        H  0.45275366  0.32625265  0.79960737     0.08550
H595        H  0.43469179  0.32464228  0.76027659     0.08550
H596        H  0.42821101  0.35755922  0.78621010     0.05330
C597        C  0.47374931  0.09705119  0.61407811    -0.20480
C598        C  0.50202656  0.11201527  0.62037736    -0.07040
C599        C  0.52817622  0.10569292  0.60102033     0.13820
C600        C  0.52565217  0.08373505  0.57613658    -0.20530
C601        C  0.49752197  0.06783299  0.57008920    -0.07050
C602        C  0.47093296  0.07524286  0.58908505     0.13810
C603        C  0.43967806  0.05990386  0.58418480    -0.23880
H604        H  0.45386871  0.10207249  0.62933491     0.15100
H605        H  0.54603681  0.07865979  0.56166050     0.15130
C606        C  0.55902653  0.12122380  0.60741813    -0.23830
H607        H  0.42209780  0.06821955  0.60183479     0.05340
H608        H  0.44197787  0.03422316  0.58714365     0.08570
H609        H  0.43052436  0.06553338  0.55992140     0.08570
H610        H  0.56706595  0.11558573  0.63210167     0.08550
H611        H  0.55641154  0.14692320  0.60500235     0.08550
H612        H  0.57728663  0.11331247  0.59031900     0.05330
C613        C  0.52626160  0.07603659  0.91581889    -0.20480
C614        C  0.49742475  0.06829090  0.92986412    -0.07040
C615        C  0.47004367  0.08408759  0.91902801     0.13820
C616        C  0.47232125  0.10598912  0.89403003    -0.20530
C617        C  0.50091744  0.11233911  0.87940547    -0.07050
C618        C  0.52825956  0.09766599  0.89067608     0.13810
C619        C  0.55956507  0.10479055  0.87605492    -0.23880
H620        H  0.54744554  0.06461587  0.92397024     0.15100
H621        H  0.45147005  0.11744748  0.88499306     0.15130
C622        C  0.43822497  0.07812951  0.93308869    -0.23830
H623        H  0.57873103  0.09174531  0.88811591     0.05340
H624        H  0.56443491  0.13014757  0.87831990     0.08570
H625        H  0.55961274  0.09820923  0.85028976     0.08570
H626        H  0.43851422  0.08298457  0.95926612     0.08550
H627        H  0.43125351  0.05358260  0.92855908     0.08550
H628        H  0.42003996  0.09336907  0.92217409     0.05330
C629        C  0.47541338  0.93395571  0.59407628    -0.20480
C630        C  0.49802153  0.93163478  0.56984982    -0.07040
C631        C  0.52016653  0.90695619  0.57099195     0.13820
C632        C  0.51995626  0.88622425  0.59713782    -0.20530
C633        C  0.49854358  0.88987356  0.62224923    -0.07050
C634        C  0.47550187  0.91351424  0.62035314     0.13810
C635        C  0.45060179  0.91692854  0.64565638    -0.23880
H636        H  0.45811420  0.95248763  0.59295056     0.15100
H637        H  0.53724580  0.86770245  0.59854937     0.15130
C638        C  0.54366222  0.90193135  0.54457232    -0.23830
H639        H  0.43345331  0.93549133  0.63938545     0.05340
H640        H  0.46119527  0.92328605  0.66902631     0.08570
H641        H  0.43775273  0.89460781  0.64815995     0.08570
H642        H  0.56019126  0.92175845  0.54366450     0.08550
H643        H  0.53144041  0.89971455  0.52116480     0.08550
H644        H  0.55762249  0.88032317  0.54842353     0.05330
C645        C  0.48401661  0.91597866  0.87499294    -0.20480
C646        C  0.50127274  0.88824726  0.87889977    -0.07040
C647        C  0.51653230  0.88250433  0.90847838     0.13820
C648        C  0.51472411  0.90504527  0.93298639    -0.20530
C649        C  0.49765601  0.93279159  0.92879754    -0.07050
C650        C  0.48196200  0.93827399  0.89953039     0.13810
C651        C  0.46430234  0.96826824  0.89347748    -0.23880
H652        H  0.47239718  0.92046413  0.85231874     0.15100
H653        H  0.52679352  0.90109557  0.95552177     0.15130
C654        C  0.53583153  0.85349686  0.91394838    -0.23830
H655        H  0.45471039  0.96926390  0.86871591     0.05340
H656        H  0.48009620  0.98852270  0.89671857     0.08570
H657        H  0.44443371  0.97030539  0.91039472     0.08570
H658        H  0.55405929  0.85146154  0.89515216     0.08550
H659        H  0.52067926  0.83260765  0.91342718     0.08550
H660        H  0.54767326  0.85391772  0.93767907     0.05330
loop_ 
_geom_bond_atom_site_label_1 
_geom_bond_atom_site_label_2 
_geom_bond_distance 
_geom_bond_site_symmetry_2 
_ccdc_geom_bond_type 
O1           C11   1.279       .  A
O1         Cu339   2.009   1_545  S
O2           C12   1.277       .  A
O2           Cu9   2.005   1_554  S
O3           C13   1.277       .  A
O3         Cu339   2.009       .  S
O4           C14   1.279       .  A
O4           Cu9   2.011   1_544  S
O5           C14   1.276       .  A
O5         Cu340   2.003   1_544  S
O6           C13   1.277       .  A
O6          Cu10   2.005       .  S
O7           C12   1.278       .  A
O7         Cu340   2.010   1_554  S
O8           C11   1.276       .  A
O8          Cu10   2.005   1_545  S
Cu9         O331   2.009   1_565  S
Cu9         O333   2.009       .  S
Cu9        Cu340   2.367       .  S
Cu10        O335   2.003   1_565  S
Cu10        O337   2.010       .  S
Cu10       Cu339   2.367       .  S
C11         C284   1.494       .  S
C12         C300   1.481       .  S
C13         C319   1.474       .  S
C14         C271   1.492       .  S
N15          N16   1.321       .  A
N15          C19   1.348       .  A
N15         Cu23   2.076       .  S
N16          C17   1.341       .  A
N16         Cu22   2.058       .  S
C17          C18   1.378       .  A
C17          H20   1.082       .  S
C18         C287   1.471       .  S
C18          C19   1.384       .  A
C19          H21   1.082       .  S
Cu22         N25   2.058       .  S
Cu23         N33   2.078       .  S
Cu24         N26   2.078       .  S
Cu24         N32   2.079       .  S
N25          N26   1.321       .  A
N25          C29   1.341       .  A
N26          C27   1.348       .  A
C27          C28   1.385       .  A
C27          H30   1.082       .  S
C28         C268   1.471       .  S
C28          C29   1.377       .  A
C29          H31   1.082       .  S
N32          N33   1.325       .  A
N32          C36   1.345       .  A
N33          C34   1.344       .  A
C34          C35   1.382       .  A
C34          H37   1.081       .  S
C35         C252   1.476       .  S
C35          C36   1.382       .  A
C36          H38   1.082       .  S
N39          N40   1.320       .  A
N39          C43   1.349       .  A
N39         Cu47   2.081       .  S
N40          C41   1.340       .  A
N40         Cu46   2.059       .  S
C41          C42   1.381       .  A
C41          H44   1.082       .  S
C42         C316   1.483       .  S
C42          C43   1.390       .  A
C43          H45   1.081       .  S
Cu46         N49   2.059       .  S
Cu47         N57   2.083       .  S
Cu48         N50   2.077       .  S
Cu48         N56   2.078       .  S
N49          N50   1.321       .  A
N49          C53   1.341       .  A
N50          C51   1.348       .  A
C51          C52   1.385       .  A
C51          H54   1.082       .  S
C52         C303   1.475       .  S
C52          C53   1.380       .  A
C53          H55   1.082       .  S
N56          N57   1.324       .  A
N56          C60   1.344       .  A
N57          C58   1.345       .  A
C58          C59   1.384       .  A
C58          H61   1.082       .  S
C59         C236   1.481       .  S
C59          C60   1.383       .  A
C60          H62   1.081       .  S
O63          C73   1.277       .  A
O63        Cu401   2.013       .  S
O64          C74   1.277       .  A
O64         Cu71   2.011   1_455  S
O65          C75   1.277       .  A
O65        Cu401   2.006   1_455  S
O66          C76   1.279       .  A
O66         Cu71   2.009       .  S
O67          C76   1.277       .  A
O67         Cu72   2.016   1_655  S
O68          C75   1.279       .  A
O68        Cu402   2.011       .  S
O69          C74   1.278       .  A
O69         Cu72   2.013       .  S
O70          C73   1.276       .  A
O70        Cu402   2.003   1_655  S
Cu71        O393   2.013   1_554  S
Cu71        O395   2.006   1_654  S
Cu71        Cu72   2.372   1_655  S
Cu72        O398   2.011   1_554  S
Cu72        O400   2.003   1_454  S
C73         C220   1.472       .  S
C74         C172   1.473       .  S
C75         C191   1.481       .  S
C76         C207   1.487       .  S
N77          N78   1.320       .  A
N77          C81   1.348       .  A
N77         Cu85   2.075       .  S
N78          C79   1.342       .  A
N78         Cu84   2.062       .  S
C79          C80   1.381       .  A
C79          H82   1.082       .  S
C80         C188   1.476       .  S
C80          C81   1.385       .  A
C81          H83   1.082       .  S
Cu84         N87   2.062       .  S
Cu85         N95   2.076       .  S
Cu86         N88   2.082       .  S
Cu86         N94   2.083       .  S
N87          N88   1.320       .  A
N87          C91   1.339       .  A
N88          C89   1.349       .  A
C89          C90   1.392       .  A
C89          H92   1.080       .  S
C90         C175   1.488       .  S
C90          C91   1.384       .  A
C91          H93   1.082       .  S
N94          N95   1.323       .  A
N94          C98   1.345       .  A
N95          C96   1.344       .  A
C96          C97   1.386       .  A
C96          H99   1.078       .  S
C97         C156   1.488       .  S
C97          C98   1.387       .  A
C98         H100   1.082       .  S
N101        N102   1.320       .  A
N101        C105   1.347       .  A
N101       Cu109   2.076       .  S
N102        C103   1.341       .  A
N102       Cu108   2.064       .  S
C103        C104   1.385       .  A
C103        H106   1.082       .  S
C104        C223   1.487       .  S
C104        C105   1.390       .  A
C105        H107   1.079       .  S
Cu108       N111   2.064       .  S
Cu109       N119   2.077       .  S
Cu110       N112   2.078       .  S
Cu110       N118   2.079       .  S
N111        N112   1.321       .  A
N111        C115   1.341       .  A
N112        C113   1.349       .  A
C113        C114   1.386       .  A
C113        H116   1.082       .  S
C114        C204   1.477       .  S
C114        C115   1.380       .  A
C115        H117   1.082       .  S
N118        N119   1.323       .  A
N118        C122   1.343       .  A
N119        C120   1.344       .  A
C120        C121   1.388       .  A
C120        H123   1.078       .  S
C121        C140   1.490       .  S
C121        C122   1.387       .  A
C122        H124   1.082       .  S
O125        C135   1.279       .  A
O125       Cu133   2.007       .  S
O126        C136   1.278       .  A
O126       Cu133   2.006       .  S
O127        C137   1.277       .  A
O127       Cu133   2.004       .  S
O128        C138   1.277       .  A
O128       Cu133   2.005       .  S
O129        C138   1.278       .  A
O129       Cu134   2.007       .  S
O130        C137   1.277       .  A
O130       Cu134   2.007       .  S
O131        C136   1.277       .  A
O131       Cu134   2.006       .  S
O132        C135   1.277       .  A
O132       Cu134   2.005       .  S
Cu133      Cu134   2.371       .  S
C135        C143   1.489       .  S
C136        C159   1.486       .  S
C137        C255   1.471       .  S
C138        C239   1.477       .  S
C139        C140   1.405       .  A
C139        C144   1.403       .  A
C139        H146   1.083       .  S
C140        C141   1.418       .  A
C141        C142   1.404       .  A
C141        C148   1.507       .  S
C142        C143   1.405       .  A
C142        H147   1.084       .  S
C143        C144   1.418       .  A
C144        C145   1.508       .  S
C145        H149   1.111       .  S
C145        H150   1.110       .  S
C145        H151   1.108       .  S
C148        H152   1.110       .  S
C148        H153   1.107       .  S
C148        H154   1.111       .  S
C155        C156   1.405       .  A
C155        C160   1.404       .  A
C155        H162   1.084       .  S
C156        C157   1.417       .  A
C157        C158   1.404       .  A
C157        C164   1.508       .  S
C158        C159   1.404       .  A
C158        H163   1.084       .  S
C159        C160   1.417       .  A
C160        C161   1.509       .  S
C161        H165   1.111       .  S
C161        H166   1.110       .  S
C161        H167   1.111       .  S
C164        H168   1.110       .  S
C164        H169   1.107       .  S
C164        H170   1.111       .  S
C171        C172   1.402       .  A
C171        C176   1.409       .  A
C171        H178   1.084       .  S
C172        C173   1.407       .  A
C173        C174   1.399       .  A
C173        C180   1.504       .  S
C174        C175   1.406       .  A
C174        H179   1.084       .  S
C175        C176   1.419       .  A
C176        C177   1.505       .  S
C177        H181   1.111       .  S
C177        H182   1.108       .  S
C177        H183   1.110       .  S
C180        H184   1.108       .  S
C180        H185   1.111       .  S
C180        H186   1.111       .  S
C187        C188   1.401       .  A
C187        C192   1.406       .  A
C187        H194   1.084       .  S
C188        C189   1.413       .  A
C189        C190   1.402       .  A
C189        C196   1.508       .  S
C190        C191   1.404       .  A
C190        H195   1.084       .  S
C191        C192   1.417       .  A
C192        C193   1.508       .  S
C193        H197   1.111       .  S
C193        H198   1.111       .  S
C193        H199   1.109       .  S
C196        H200   1.110       .  S
C196        H201   1.108       .  S
C196        H202   1.111       .  S
C203        C204   1.400       .  A
C203        C208   1.402       .  A
C203        H210   1.085       .  S
C204        C205   1.409       .  A
C205        C206   1.405       .  A
C205        C212   1.506       .  S
C206        C207   1.409       .  A
C206        H211   1.084       .  S
C207        C208   1.422       .  A
C208        C209   1.508       .  S
C209        H213   1.110       .  S
C209        H214   1.111       .  S
C209        H215   1.099       .  S
C212        H216   1.110       .  S
C212        H217   1.109       .  S
C212        H218   1.111       .  S
C219        C220   1.401       .  A
C219        C224   1.407       .  A
C219        H226   1.084       .  S
C220        C221   1.409       .  A
C221        C222   1.401       .  A
C221        C228   1.508       .  S
C222        C223   1.406       .  A
C222        H227   1.084       .  S
C223        C224   1.419       .  A
C224        C225   1.506       .  S
C225        H229   1.111       .  S
C225        H230   1.107       .  S
C225        H231   1.110       .  S
C228        H232   1.109       .  S
C228        H233   1.111       .  S
C228        H234   1.111       .  S
C235        C236   1.404       .  A
C235        C240   1.404       .  A
C235        H242   1.084       .  S
C236        C237   1.415       .  A
C237        C238   1.404       .  A
C237        C244   1.507       .  S
C238        C239   1.402       .  A
C238        H243   1.084       .  S
C239        C240   1.414       .  A
C240        C241   1.508       .  S
C241        H245   1.111       .  S
C241        H246   1.111       .  S
C241        H247   1.109       .  S
C244        H248   1.107       .  S
C244        H249   1.110       .  S
C244        H250   1.111       .  S
C251        C252   1.403       .  A
C251        C256   1.403       .  A
C251        H258   1.084       .  S
C252        C253   1.414       .  A
C253        C254   1.403       .  A
C253        C260   1.507       .  S
C254        C255   1.401       .  A
C254        H259   1.084       .  S
C255        C256   1.411       .  A
C256        C257   1.506       .  S
C257        H261   1.111       .  S
C257        H262   1.111       .  S
C257        H263   1.109       .  S
C260        H264   1.108       .  S
C260        H265   1.110       .  S
C260        H266   1.111       .  S
C267        C268   1.398       .  A
C267        C272   1.404       .  A
C267        H274   1.084       .  S
C268        C269   1.407       .  A
C269        C270   1.404       .  A
C269        C276   1.506       .  S
C270        C271   1.410       .  A
C270        H275   1.083       .  S
C271        C272   1.423       .  A
C272        C273   1.508       .  S
C273        H277   1.111       .  S
C273        H278   1.110       .  S
C273        H279   1.110       .  S
C276        H280   1.110       .  S
C276        H281   1.110       .  S
C276        H282   1.111       .  S
C283        C284   1.409       .  A
C283        C288   1.402       .  A
C283        H290   1.083       .  S
C284        C285   1.424       .  A
C285        C286   1.406       .  A
C285        C292   1.508       .  S
C286        C287   1.398       .  A
C286        H291   1.084       .  S
C287        C288   1.407       .  A
C288        C289   1.507       .  S
C289        H293   1.111       .  S
C289        H294   1.110       .  S
C289        H295   1.110       .  S
C292        H296   1.110       .  S
C292        H297   1.110       .  S
C292        H298   1.111       .  S
C299        C300   1.404       .  A
C299        C304   1.402       .  A
C299        H306   1.084       .  S
C300        C301   1.417       .  A
C301        C302   1.406       .  A
C301        C308   1.508       .  S
C302        C303   1.401       .  A
C302        H307   1.084       .  S
C303        C304   1.413       .  A
C304        C305   1.508       .  S
C305        H309   1.111       .  S
C305        H310   1.108       .  S
C305        H311   1.110       .  S
C308        H312   1.109       .  S
C308        H313   1.111       .  S
C308        H314   1.111       .  S
C315        C316   1.405       .  A
C315        C320   1.401       .  A
C315        H322   1.084       .  S
C316        C317   1.415       .  A
C317        C318   1.407       .  A
C317        C324   1.506       .  S
C318        C319   1.403       .  A
C318        H323   1.084       .  S
C319        C320   1.411       .  A
C320        C321   1.508       .  S
C321        H325   1.111       .  S
C321        H326   1.111       .  S
C321        H327   1.109       .  S
C324        H328   1.110       .  S
C324        H329   1.108       .  S
C324        H330   1.111       .  S
O331        C341   1.279       .  A
O332        C342   1.277       .  A
O332       Cu339   2.005       .  S
O333        C343   1.277       .  A
O334        C344   1.279       .  A
O334       Cu339   2.011   1_545  S
O335        C344   1.276       .  A
O336        C343   1.277       .  A
O336       Cu340   2.005       .  S
O337        C342   1.278       .  A
O338        C341   1.276       .  A
O338       Cu340   2.005   1_545  S
C341        C614   1.494       .  S
C342        C630   1.481       .  S
C343        C649   1.474       .  S
C344        C601   1.492       .  S
N345        N346   1.321       .  A
N345        C349   1.348       .  A
N345       Cu353   2.076       .  S
N346        C347   1.341       .  A
N346       Cu352   2.058       .  S
C347        C348   1.378       .  A
C347        H350   1.082       .  S
C348        C617   1.471       .  S
C348        C349   1.384       .  A
C349        H351   1.082       .  S
Cu352       N355   2.058       .  S
Cu353       N363   2.078       .  S
Cu354       N356   2.078       .  S
Cu354       N362   2.079       .  S
N355        N356   1.321       .  A
N355        C359   1.341       .  A
N356        C357   1.348       .  A
C357        C358   1.385       .  A
C357        H360   1.082       .  S
C358        C598   1.471       .  S
C358        C359   1.377       .  A
C359        H361   1.082       .  S
N362        N363   1.325       .  A
N362        C366   1.345       .  A
N363        C364   1.344       .  A
C364        C365   1.382       .  A
C364        H367   1.081       .  S
C365        C582   1.476       .  S
C365        C366   1.382       .  A
C366        H368   1.082       .  S
N369        N370   1.320       .  A
N369        C373   1.349       .  A
N369       Cu377   2.081       .  S
N370        C371   1.340       .  A
N370       Cu376   2.059       .  S
C371        C372   1.381       .  A
C371        H374   1.082       .  S
C372        C646   1.483       .  S
C372        C373   1.390       .  A
C373        H375   1.081       .  S
Cu376       N379   2.059       .  S
Cu377       N387   2.083       .  S
Cu378       N380   2.077       .  S
Cu378       N386   2.078       .  S
N379        N380   1.321       .  A
N379        C383   1.341       .  A
N380        C381   1.348       .  A
C381        C382   1.385       .  A
C381        H384   1.082       .  S
C382        C633   1.475       .  S
C382        C383   1.380       .  A
C383        H385   1.082       .  S
N386        N387   1.324       .  A
N386        C390   1.344       .  A
N387        C388   1.345       .  A
C388        C389   1.384       .  A
C388        H391   1.082       .  S
C389        C566   1.481       .  S
C389        C390   1.383       .  A
C390        H392   1.081       .  S
O393        C403   1.277       .  A
O394        C404   1.277       .  A
O394       Cu401   2.011   1_455  S
O395        C405   1.277       .  A
O396        C406   1.279       .  A
O396       Cu401   2.009       .  S
O397        C406   1.277       .  A
O397       Cu402   2.016   1_655  S
O398        C405   1.279       .  A
O399        C404   1.278       .  A
O399       Cu402   2.013       .  S
O400        C403   1.276       .  A
Cu401      Cu402   2.372   1_655  S
C403        C550   1.472       .  S
C404        C502   1.473       .  S
C405        C521   1.481       .  S
C406        C537   1.487       .  S
N407        N408   1.320       .  A
N407        C411   1.348       .  A
N407       Cu415   2.075       .  S
N408        C409   1.342       .  A
N408       Cu414   2.062       .  S
C409        C410   1.381       .  A
C409        H412   1.082       .  S
C410        C518   1.476       .  S
C410        C411   1.385       .  A
C411        H413   1.082       .  S
Cu414       N417   2.062       .  S
Cu415       N425   2.076       .  S
Cu416       N418   2.082       .  S
Cu416       N424   2.083       .  S
N417        N418   1.320       .  A
N417        C421   1.339       .  A
N418        C419   1.349       .  A
C419        C420   1.392       .  A
C419        H422   1.080       .  S
C420        C505   1.488       .  S
C420        C421   1.384       .  A
C421        H423   1.082       .  S
N424        N425   1.323       .  A
N424        C428   1.345       .  A
N425        C426   1.344       .  A
C426        C427   1.386       .  A
C426        H429   1.078       .  S
C427        C486   1.488       .  S
C427        C428   1.387       .  A
C428        H430   1.082       .  S
N431        N432   1.320       .  A
N431        C435   1.347       .  A
N431       Cu439   2.076       .  S
N432        C433   1.341       .  A
N432       Cu438   2.064       .  S
C433        C434   1.385       .  A
C433        H436   1.082       .  S
C434        C553   1.487       .  S
C434        C435   1.390       .  A
C435        H437   1.079       .  S
Cu438       N441   2.064       .  S
Cu439       N449   2.077       .  S
Cu440       N442   2.078       .  S
Cu440       N448   2.079       .  S
N441        N442   1.321       .  A
N441        C445   1.341       .  A
N442        C443   1.349       .  A
C443        C444   1.386       .  A
C443        H446   1.082       .  S
C444        C534   1.477       .  S
C444        C445   1.380       .  A
C445        H447   1.082       .  S
N448        N449   1.323       .  A
N448        C452   1.343       .  A
N449        C450   1.344       .  A
C450        C451   1.388       .  A
C450        H453   1.078       .  S
C451        C470   1.490       .  S
C451        C452   1.387       .  A
C452        H454   1.082       .  S
O455        C465   1.279       .  A
O455       Cu463   2.007       .  S
O456        C466   1.278       .  A
O456       Cu463   2.006       .  S
O457        C467   1.277       .  A
O457       Cu463   2.004       .  S
O458        C468   1.277       .  A
O458       Cu463   2.005       .  S
O459        C468   1.278       .  A
O459       Cu464   2.007       .  S
O460        C467   1.277       .  A
O460       Cu464   2.007       .  S
O461        C466   1.277       .  A
O461       Cu464   2.006       .  S
O462        C465   1.277       .  A
O462       Cu464   2.005       .  S
Cu463      Cu464   2.371       .  S
C465        C473   1.489       .  S
C466        C489   1.486       .  S
C467        C585   1.471       .  S
C468        C569   1.477       .  S
C469        C470   1.405       .  A
C469        C474   1.403       .  A
C469        H476   1.083       .  S
C470        C471   1.418       .  A
C471        C472   1.404       .  A
C471        C478   1.507       .  S
C472        C473   1.405       .  A
C472        H477   1.084       .  S
C473        C474   1.418       .  A
C474        C475   1.508       .  S
C475        H479   1.111       .  S
C475        H480   1.110       .  S
C475        H481   1.108       .  S
C478        H482   1.110       .  S
C478        H483   1.107       .  S
C478        H484   1.111       .  S
C485        C486   1.405       .  A
C485        C490   1.404       .  A
C485        H492   1.084       .  S
C486        C487   1.417       .  A
C487        C488   1.404       .  A
C487        C494   1.508       .  S
C488        C489   1.404       .  A
C488        H493   1.084       .  S
C489        C490   1.417       .  A
C490        C491   1.509       .  S
C491        H495   1.111       .  S
C491        H496   1.110       .  S
C491        H497   1.111       .  S
C494        H498   1.110       .  S
C494        H499   1.107       .  S
C494        H500   1.111       .  S
C501        C502   1.402       .  A
C501        C506   1.409       .  A
C501        H508   1.084       .  S
C502        C503   1.407       .  A
C503        C504   1.399       .  A
C503        C510   1.504       .  S
C504        C505   1.406       .  A
C504        H509   1.084       .  S
C505        C506   1.419       .  A
C506        C507   1.505       .  S
C507        H511   1.111       .  S
C507        H512   1.108       .  S
C507        H513   1.110       .  S
C510        H514   1.108       .  S
C510        H515   1.111       .  S
C510        H516   1.111       .  S
C517        C518   1.401       .  A
C517        C522   1.406       .  A
C517        H524   1.084       .  S
C518        C519   1.413       .  A
C519        C520   1.402       .  A
C519        C526   1.508       .  S
C520        C521   1.404       .  A
C520        H525   1.084       .  S
C521        C522   1.417       .  A
C522        C523   1.508       .  S
C523        H527   1.111       .  S
C523        H528   1.111       .  S
C523        H529   1.109       .  S
C526        H530   1.110       .  S
C526        H531   1.108       .  S
C526        H532   1.111       .  S
C533        C534   1.400       .  A
C533        C538   1.402       .  A
C533        H540   1.085       .  S
C534        C535   1.409       .  A
C535        C536   1.405       .  A
C535        C542   1.506       .  S
C536        C537   1.409       .  A
C536        H541   1.084       .  S
C537        C538   1.422       .  A
C538        C539   1.508       .  S
C539        H543   1.110       .  S
C539        H544   1.111       .  S
C539        H545   1.099       .  S
C542        H546   1.110       .  S
C542        H547   1.109       .  S
C542        H548   1.111       .  S
C549        C550   1.401       .  A
C549        C554   1.407       .  A
C549        H556   1.084       .  S
C550        C551   1.409       .  A
C551        C552   1.401       .  A
C551        C558   1.508       .  S
C552        C553   1.406       .  A
C552        H557   1.084       .  S
C553        C554   1.419       .  A
C554        C555   1.506       .  S
C555        H559   1.111       .  S
C555        H560   1.107       .  S
C555        H561   1.110       .  S
C558        H562   1.109       .  S
C558        H563   1.111       .  S
C558        H564   1.111       .  S
C565        C566   1.404       .  A
C565        C570   1.404       .  A
C565        H572   1.084       .  S
C566        C567   1.415       .  A
C567        C568   1.404       .  A
C567        C574   1.507       .  S
C568        C569   1.402       .  A
C568        H573   1.084       .  S
C569        C570   1.414       .  A
C570        C571   1.508       .  S
C571        H575   1.111       .  S
C571        H576   1.111       .  S
C571        H577   1.109       .  S
C574        H578   1.107       .  S
C574        H579   1.110       .  S
C574        H580   1.111       .  S
C581        C582   1.403       .  A
C581        C586   1.403       .  A
C581        H588   1.084       .  S
C582        C583   1.414       .  A
C583        C584   1.403       .  A
C583        C590   1.507       .  S
C584        C585   1.401       .  A
C584        H589   1.084       .  S
C585        C586   1.411       .  A
C586        C587   1.506       .  S
C587        H591   1.111       .  S
C587        H592   1.111       .  S
C587        H593   1.109       .  S
C590        H594   1.108       .  S
C590        H595   1.110       .  S
C590        H596   1.111       .  S
C597        C598   1.398       .  A
C597        C602   1.404       .  A
C597        H604   1.084       .  S
C598        C599   1.407       .  A
C599        C600   1.404       .  A
C599        C606   1.506       .  S
C600        C601   1.410       .  A
C600        H605   1.083       .  S
C601        C602   1.423       .  A
C602        C603   1.508       .  S
C603        H607   1.111       .  S
C603        H608   1.110       .  S
C603        H609   1.110       .  S
C606        H610   1.110       .  S
C606        H611   1.110       .  S
C606        H612   1.111       .  S
C613        C614   1.409       .  A
C613        C618   1.402       .  A
C613        H620   1.083       .  S
C614        C615   1.424       .  A
C615        C616   1.406       .  A
C615        C622   1.508       .  S
C616        C617   1.398       .  A
C616        H621   1.084       .  S
C617        C618   1.407       .  A
C618        C619   1.507       .  S
C619        H623   1.111       .  S
C619        H624   1.110       .  S
C619        H625   1.110       .  S
C622        H626   1.110       .  S
C622        H627   1.110       .  S
C622        H628   1.111       .  S
C629        C630   1.404       .  A
C629        C634   1.402       .  A
C629        H636   1.084       .  S
C630        C631   1.417       .  A
C631        C632   1.406       .  A
C631        C638   1.508       .  S
C632        C633   1.401       .  A
C632        H637   1.084       .  S
C633        C634   1.413       .  A
C634        C635   1.508       .  S
C635        H639   1.111       .  S
C635        H640   1.108       .  S
C635        H641   1.110       .  S
C638        H642   1.109       .  S
C638        H643   1.111       .  S
C638        H644   1.111       .  S
C645        C646   1.405       .  A
C645        C650   1.401       .  A
C645        H652   1.084       .  S
C646        C647   1.415       .  A
C647        C648   1.407       .  A
C647        C654   1.506       .  S
C648        C649   1.403       .  A
C648        H653   1.084       .  S
C649        C650   1.411       .  A
C650        C651   1.508       .  S
C651        H655   1.111       .  S
C651        H656   1.111       .  S
C651        H657   1.109       .  S
C654        H658   1.110       .  S
C654        H659   1.108       .  S
C654        H660   1.111       .  S
