geometry optimzed in LAMMPS
_audit_creation_date              2020-11-30 
_audit_creation_method            'lammps2cif' 
_symmetry_space_group_name_H-M    'P1' 
_symmetry_Int_Tables_number       1 
_symmetry_cell_setting            triclinic 
loop_ 
_symmetry_equiv_pos_as_xyz 
  x,y,z 
_cell_length_a                    79.50631325 
_cell_length_b                    79.49832962669062 
_cell_length_c                    26.27136352221498 
_cell_angle_alpha                 90.17478102792771 
_cell_angle_beta                  89.38986097919502 
_cell_angle_gamma                 90.14838645920592 
loop_ 
_atom_site_label 
_atom_site_type_symbol 
_atom_site_fract_x 
_atom_site_fract_y 
_atom_site_fract_z 
_atom_site_charge 
In1        In  0.22128759  0.99657424  0.00291097     1.36900
C2          C  0.20569228  0.96886778  0.96889181     0.79200
O3          O  0.21887322  0.00968714  0.92439045    -0.59200
O4          O  0.24213509  0.99836533  0.93673927    -0.50100
C5          C  0.20424981  0.02352286  0.03747165     0.71900
O6          O  0.19717797  0.01013405  0.02303345    -0.45000
C7          C  0.23196610  0.98762518  0.10135767     0.76600
O8          O  0.19805895  0.98218511  0.98101112    -0.56800
O9          O  0.24167947  0.99469104  0.06882515    -0.46900
O10         O  0.22139668  0.96930457  0.97595253    -0.53300
C11         C  0.23300860  0.00615233  0.90492442     0.86800
O12         O  0.22010228  0.02352564  0.03233345    -0.55200
O13         O  0.21777753  0.98451765  0.08242660    -0.58400
In14       In  0.24355950  0.96918453  0.25354122     1.36900
C15         C  0.26691083  0.94788527  0.21696892     0.79200
O16         O  0.22612701  0.97453446  0.18454902    -0.59200
O17         O  0.24962864  0.98595529  0.18016920    -0.50100
C18         C  0.21691398  0.95144673  0.28770502     0.71900
O19         O  0.23072632  0.94476444  0.27520023    -0.45000
C20         C  0.25331411  0.98241239  0.34972640     0.76600
O21         O  0.25236110  0.94316126  0.23032457    -0.56800
O22         O  0.24232969  0.98923935  0.32182285    -0.46900
O23         O  0.26978166  0.96336959  0.22382230    -0.53300
C24         C  0.23614746  0.98278587  0.15661191     0.86800
O25         O  0.21645206  0.96720989  0.28167351    -0.55200
O26         O  0.26003119  0.97017583  0.32672499    -0.58400
In27       In  0.24684650  0.02494313  0.75354621     1.36900
C28         C  0.27293057  0.04357385  0.78797765     0.79200
O29         O  0.22915933  0.02142017  0.82433754    -0.59200
O30         O  0.25065090  0.00659173  0.82454272    -0.50100
C31         C  0.22072654  0.04358575  0.72200756     0.71900
O32         O  0.23430530  0.04994083  0.73759443    -0.45000
C33         C  0.25500656  0.01233701  0.65490203     0.76600
O34         O  0.25889525  0.04977343  0.77632154    -0.56800
O35         O  0.24548451  0.00456636  0.68618195    -0.46900
O36         O  0.27391920  0.02786409  0.78081507    -0.53300
C37         C  0.23785313  0.01133568  0.85002536     0.86800
O38         O  0.22017917  0.02771045  0.72414738    -0.55200
O39         O  0.26112982  0.02528687  0.67550276    -0.58400
In40       In  0.27064468  0.99767406  0.50085886     1.36900
C41         C  0.28734163  0.02451667  0.46506371     0.79200
O42         O  0.27165466  0.98257520  0.42470543    -0.59200
O43         O  0.25020091  0.99729745  0.43455149    -0.50100
C44         C  0.28842068  0.97173751  0.53677464     0.71900
O45         O  0.29518681  0.98519786  0.52132809    -0.45000
C46         C  0.25920884  0.00728333  0.59932943     0.76600
O47         O  0.29458166  0.01112755  0.47827053    -0.56800
O48         O  0.27113507  0.01397618  0.57458573    -0.46900
O49         O  0.27153692  0.02442720  0.47115718    -0.53300
C50         C  0.25835925  0.98772798  0.40418156     0.86800
O51         O  0.27262839  0.97117411  0.53187841    -0.55200
O52         O  0.25169020  0.99637207  0.57215640    -0.58400
In53       In  0.77224470  0.99798935  0.99179872     1.36900
C54         C  0.79088250  0.02383237  0.02934613     0.79200
O55         O  0.75150252  0.99805637  0.92563824    -0.59200
O56         O  0.77315099  0.01228182  0.91408646    -0.50100
C57         C  0.79117250  0.97217206  0.95640252     0.71900
O58         O  0.79730665  0.98578870  0.97265614    -0.45000
C59         C  0.75832372  0.98822425  0.08776884     0.76600
O60         O  0.79697151  0.00977160  0.01682177    -0.56800
O61         O  0.75291644  0.00057179  0.06214778    -0.46900
O62         O  0.77525291  0.02500342  0.02161253    -0.53300
C63         C  0.75967818  0.00720209  0.89424214     0.86800
O64         O  0.77530094  0.97136463  0.95972012    -0.55200
O65         O  0.76932207  0.98027672  0.06246119    -0.58400
In66       In  0.74510988  0.02517001  0.74242699     1.36900
C67         C  0.77097832  0.04452489  0.70971468     0.79200
O68         O  0.74208033  0.00664267  0.81432251    -0.59200
O69         O  0.76268414  0.02268692  0.81314784    -0.50100
C70         C  0.71842640  0.04291980  0.77624282     0.71900
O71         O  0.73241180  0.04959057  0.76524252    -0.45000
C72         C  0.73594456  0.01275234  0.64450655     0.76600
O73         O  0.75735235  0.05049602  0.72689979    -0.56800
O74         O  0.73012286  0.02561681  0.66652460    -0.46900
O75         O  0.77161876  0.02862535  0.71004164    -0.53300
C76         C  0.75454877  0.01211380  0.83938068     0.86800
O77         O  0.71791272  0.02718054  0.76949249    -0.55200
O78         O  0.74600089  0.00505015  0.67375632    -0.58400
In79       In  0.71771626  0.99842148  0.49298737     1.36900
C80         C  0.69938318  0.02498145  0.46159400     0.79200
O81         O  0.71821465  0.01416536  0.56818219    -0.59200
O82         O  0.73791466  0.99717483  0.56029309    -0.50100
C83         C  0.70043652  0.97165721  0.52896338     0.71900
O84         O  0.69345370  0.98508320  0.51493477    -0.45000
C85         C  0.72979406  0.98903367  0.39432493     0.76600
O86         O  0.69290370  0.01125858  0.47597963    -0.56800
O87         O  0.73742208  0.99940955  0.42306445    -0.46900
O88         O  0.71526175  0.02536709  0.46407850    -0.53300
C89         C  0.73074555  0.00774389  0.58977988     0.86800
O90         O  0.71624640  0.97161547  0.52330400    -0.55200
O91         O  0.71715495  0.98294877  0.41720284    -0.58400
In92       In  0.74377364  0.97115431  0.24102165     1.36900
C93         C  0.77088647  0.95384096  0.27125234     0.79200
O94         O  0.75798920  0.96977886  0.16298767    -0.59200
O95         O  0.74364468  0.99141024  0.17339027    -0.50100
C96         C  0.71710921  0.95293706  0.21050780     0.71900
O97         O  0.73054723  0.94640838  0.22604999    -0.45000
C98         C  0.73469102  0.98385217  0.33917723     0.76600
O99         O  0.75726122  0.94690674  0.25872904    -0.56800
O100        O  0.74497946  0.99127814  0.30929762    -0.46900
O101        O  0.77085914  0.96969961  0.26788691    -0.53300
C102        C  0.75298099  0.98316204  0.14253183     0.86800
O103        O  0.71700906  0.96884892  0.21162961    -0.55200
O104        O  0.72847389  0.97111934  0.31756192    -0.58400
In105      In  0.58842595  0.14692824  0.32394723     1.36900
C106        C  0.57871141  0.14396459  0.42024529     0.79200
O107        O  0.60311806  0.12436557  0.29188494    -0.59200
O108        O  0.61352481  0.13802587  0.35299009    -0.50100
C109        C  0.55979748  0.13983617  0.27538858     0.71900
O110        O  0.56626391  0.15430038  0.27573003    -0.45000
C111        C  0.59571444  0.17832591  0.29382406     0.76600
O112        O  0.57050806  0.13768096  0.38438122    -0.56800
O113        O  0.60044299  0.16556819  0.26846490    -0.46900
O114        O  0.59120818  0.15268740  0.40709290    -0.53300
C115        C  0.61454610  0.12528211  0.32483399     0.86800
O116        O  0.56860491  0.12863438  0.29594953    -0.55200
O117        O  0.58768008  0.17496232  0.33412187    -0.58400
In118      In  0.39469374  0.15074364  0.33330712     1.36900
C119        C  0.40136610  0.15138549  0.43105852     0.79200
O120        O  0.37959992  0.16805741  0.28135500    -0.59200
O121        O  0.39624563  0.17893633  0.33444503    -0.50100
C122        C  0.42473443  0.14405535  0.28998816     0.71900
O123        O  0.41143067  0.14451815  0.26423934    -0.45000
C124        C  0.37022816  0.12732234  0.33558985     0.76600
O125        O  0.39517601  0.16381774  0.40839267    -0.56800
O126        O  0.36943617  0.14086855  0.36032911    -0.46900
O127        O  0.40352559  0.13834234  0.40441431    -0.53300
C128        C  0.38557543  0.18135516  0.30043375     0.86800
O129        O  0.42262656  0.14698942  0.33646942    -0.55200
O130        O  0.38301977  0.12605391  0.30709155    -0.58400
In131      In  0.59104759  0.34725068  0.31694831     1.36900
C132        C  0.58299733  0.35342187  0.41224230     0.79200
O133        O  0.59316443  0.31964506  0.33439145    -0.59200
O134        O  0.60046597  0.32739908  0.26031492    -0.50100
C135        C  0.56102389  0.35008278  0.27298266     0.71900
O136        O  0.56308406  0.34430231  0.31691210    -0.45000
C137        C  0.61604905  0.37047098  0.31612909     0.76600
O138        O  0.59238721  0.34134349  0.39951523    -0.56800
O139        O  0.61781068  0.35585399  0.33351078    -0.46900
O140        O  0.57771575  0.36238873  0.37644816    -0.53300
C141        C  0.59827198  0.31531425  0.29088356     0.86800
O142        O  0.57445001  0.35426691  0.24993108    -0.55200
O143        O  0.60223115  0.37271403  0.29408971    -0.58400
In144      In  0.39546572  0.34852866  0.32059314     1.36900
C145        C  0.39743632  0.34960642  0.42053336     0.79200
O146        O  0.36915809  0.35916552  0.32940722    -0.59200
O147        O  0.38802415  0.37530354  0.30003001    -0.50100
C148        C  0.42602788  0.35245113  0.27895677     0.71900
O149        O  0.41283231  0.35354053  0.25270944    -0.45000
C150        C  0.38781443  0.31720647  0.29024351     0.76600
O151        O  0.40542995  0.35969843  0.39244784    -0.56800
O152        O  0.39765310  0.32048006  0.32605224    -0.46900
O153        O  0.38844460  0.33899596  0.39779441    -0.53300
C154        C  0.37309634  0.37384184  0.31598433     0.86800
O155        O  0.42351753  0.34954879  0.32541761    -0.55200
O156        O  0.38196556  0.33000260  0.26815547    -0.58400
In157      In  0.39724968  0.35272777  0.92986446     1.36900
C158        C  0.40273058  0.34760352  0.83199656     0.79200
O159        O  0.38552911  0.37667147  0.90130936    -0.59200
O160        O  0.37270284  0.36435413  0.96119840    -0.50100
C161        C  0.38706800  0.32250838  0.96291292     0.71900
O162        O  0.38080381  0.32970390  0.92492122    -0.45000
C163        C  0.42791301  0.36045229  0.96539650     0.76600
O164        O  0.39982971  0.33566276  0.86212730    -0.56800
O165        O  0.41467276  0.36528323  0.98815038    -0.46900
O166        O  0.40307953  0.36201558  0.85175656    -0.53300
C167        C  0.37266546  0.37618679  0.92922587     0.86800
O168        O  0.39755443  0.33132296  0.98717011    -0.55200
O169        O  0.42535597  0.35169055  0.92650973    -0.58400
In170      In  0.59386380  0.34926945  0.90823107     1.36900
C171        C  0.58283950  0.35637725  0.81725906     0.79200
O172        O  0.56645064  0.34366238  0.92128396    -0.59200
O173        O  0.57661971  0.36444555  0.96125378    -0.50100
C174        C  0.60121147  0.31701141  0.92649578     0.71900
O175        O  0.60216770  0.32357793  0.88317796    -0.45000
C176        C  0.62241850  0.36773082  0.91145040     0.76600
O177        O  0.58737829  0.34180863  0.82960845    -0.56800
O178        O  0.61349697  0.36516521  0.95083912    -0.46900
O179        O  0.58396757  0.36750024  0.85131735    -0.53300
C180        C  0.56368518  0.35593715  0.95035904     0.86800
O181        O  0.59764506  0.32716220  0.96208592    -0.55200
O182        O  0.61717834  0.36040661  0.87233512    -0.58400
In183      In  0.39761524  0.15555856  0.91955725     1.36900
C184        C  0.41284717  0.15785757  0.83034982     0.79200
O185        O  0.41517268  0.13977633  0.96849630    -0.59200
O186        O  0.42256710  0.16450899  0.94840861    -0.50100
C187        C  0.38501671  0.18551362  0.94687855     0.71900
O188        O  0.38422694  0.17979506  0.90226961    -0.45000
C189        C  0.37277977  0.13205799  0.91180369     0.76600
O190        O  0.41514125  0.14551035  0.85934949    -0.56800
O191        O  0.38122627  0.13749719  0.87469089    -0.46900
O192        O  0.40257573  0.16873187  0.84628127    -0.53300
C193        C  0.42651411  0.15094005  0.96939981     0.86800
O194        O  0.39083449  0.17534232  0.97900080    -0.55200
O195        O  0.37687546  0.13853919  0.95388712    -0.58400
In196      In  0.59139904  0.14621256  0.91537943     1.36900
C197        C  0.58580701  0.13590585  0.82195027     0.79200
O198        O  0.61904676  0.13972288  0.91172393    -0.59200
O199        O  0.60233262  0.12092683  0.93857018    -0.50100
C200        C  0.59882619  0.17881883  0.92387837     0.71900
O201        O  0.59231316  0.17244700  0.88484197    -0.45000
C202        C  0.56168399  0.14615918  0.96460819     0.76600
O203        O  0.59352645  0.14938930  0.83144920    -0.56800
O204        O  0.57532574  0.14396028  0.98805085    -0.46900
O205        O  0.58069977  0.12774095  0.86009272    -0.53300
C206        C  0.61705642  0.12456466  0.92401121     0.86800
O207        O  0.60198317  0.16848060  0.95903437    -0.55200
O208        O  0.56336913  0.14813825  0.91744279    -0.58400
In209      In  0.39615993  0.84885973  0.67337032     1.36900
C210        C  0.40379360  0.84718761  0.57566607     0.79200
O211        O  0.38794117  0.82962792  0.73369877    -0.59200
O212        O  0.39246423  0.82119818  0.65842682    -0.50100
C213        C  0.42505761  0.85821192  0.71784243     0.71900
O214        O  0.42270761  0.84397532  0.69836271    -0.45000
C215        C  0.37066556  0.87136780  0.67354425     0.76600
O216        O  0.41298562  0.85484965  0.60698538    -0.56800
O217        O  0.38084112  0.86937738  0.63730762    -0.46900
O218        O  0.39072585  0.84043352  0.59411451    -0.53300
C219        C  0.38872320  0.81728346  0.70336623     0.86800
O220        O  0.41237107  0.86767232  0.71715992    -0.55200
O221        O  0.37326079  0.86180360  0.71095645    -0.58400
In222      In  0.39894445  0.64939604  0.66131301     1.36900
C223        C  0.41226593  0.65213296  0.56903288     0.79200
O224        O  0.37745853  0.63860995  0.61585933    -0.59200
O225        O  0.38032804  0.62958852  0.69080351    -0.50100
C226        C  0.42510556  0.63741541  0.71284924     0.71900
O227        O  0.41840657  0.65135363  0.72338625    -0.45000
C228        C  0.39216874  0.68060286  0.69555109     0.76600
O229        O  0.41862385  0.64302786  0.60270211    -0.56800
O230        O  0.38434531  0.66783786  0.71216708    -0.46900
O231        O  0.39920226  0.65999479  0.58234386    -0.53300
C232        C  0.37253843  0.62843591  0.64931909     0.86800
O233        O  0.41750206  0.62891769  0.67976456    -0.55200
O234        O  0.40321949  0.67735753  0.66243223    -0.58400
In235      In  0.58741556  0.85075336  0.66377004     1.36900
C236        C  0.57671816  0.85059879  0.56900903     0.79200
O237        O  0.60021955  0.87514679  0.68984068    -0.59200
O238        O  0.61417014  0.85863981  0.64303402    -0.50100
C239        C  0.55846936  0.85954141  0.71004601     0.71900
O240        O  0.55988760  0.85694659  0.66307024    -0.45000
C241        C  0.59556292  0.81897923  0.68942864     0.76600
O242        O  0.57576285  0.83782996  0.59708264    -0.56800
O243        O  0.59954132  0.82553453  0.64756061    -0.46900
O244        O  0.58288349  0.86355447  0.58937475    -0.53300
C245        C  0.61363210  0.87268789  0.66500453     0.86800
O246        O  0.57198479  0.85795370  0.73453221    -0.55200
O247        O  0.58854317  0.82897387  0.72032302    -0.58400
In248      In  0.58715097  0.64911396  0.65712419     1.36900
C249        C  0.58000626  0.65053217  0.55964973     0.79200
O250        O  0.59908809  0.66878272  0.70996443    -0.59200
O251        O  0.58224629  0.67695038  0.65353157    -0.50100
C252        C  0.55861638  0.64025580  0.70473879     0.71900
O253        O  0.55989973  0.64244705  0.65756979    -0.45000
C254        C  0.61217521  0.62597218  0.65172750     0.76600
O255        O  0.57285747  0.64030175  0.58929322    -0.56800
O256        O  0.59853212  0.62339355  0.67518906    -0.46900
O257        O  0.59123969  0.65960530  0.57919913    -0.53300
C258        C  0.59196160  0.68106727  0.68876156     0.86800
O259        O  0.57210381  0.64246851  0.72905499    -0.55200
O260        O  0.61354338  0.64060481  0.63422801    -0.58400
In261      In  0.40046546  0.65004702  0.07105928     1.36900
C262        C  0.41044949  0.65094946  0.16651118     0.79200
O263        O  0.37321152  0.64371018  0.08963078    -0.59200
O264        O  0.38710066  0.62572299  0.04777512    -0.50100
C265        C  0.39289877  0.68145175  0.04220558     0.71900
O266        O  0.39349375  0.67691159  0.08791337    -0.45000
C267        C  0.42997854  0.64140527  0.02745800     0.76600
O268        O  0.41215399  0.66333169  0.13707712    -0.56800
O269        O  0.41773928  0.64642525  0.00140637    -0.46900
O270        O  0.40350398  0.63815181  0.14750611    -0.53300
C271        C  0.37346886  0.62924637  0.07021226     0.86800
O272        O  0.39536666  0.66978236  0.01031019    -0.55200
O273        O  0.42683503  0.64002618  0.07405873    -0.58400
In274      In  0.59499136  0.65387024  0.06139518     1.36900
C275        C  0.56504931  0.64455080  0.02466887     0.79200
O276        O  0.58763293  0.64315074  0.13697633    -0.59200
O277        O  0.58717084  0.66975869  0.12796113    -0.50100
C278        C  0.62192504  0.63359950  0.07373258     0.71900
O279        O  0.62199613  0.64898901  0.08496753    -0.45000
C280        C  0.60300688  0.68210480  0.01156037     0.76600
O281        O  0.56686416  0.65513192  0.05972836    -0.56800
O282        O  0.59861401  0.66894083  0.98814069    -0.46900
O283        O  0.57865099  0.63880234  0.00637603    -0.53300
C284        C  0.58461745  0.65732251  0.15651330     0.86800
O285        O  0.60857593  0.62871832  0.05279911    -0.55200
O286        O  0.60442429  0.68037344  0.05877840    -0.58400
In287      In  0.39840073  0.84970043  0.06819699     1.36900
C288        C  0.40704892  0.84993389  0.16464162     0.79200
O289        O  0.42467385  0.86036582  0.06670289    -0.59200
O290        O  0.41475144  0.85246963  0.99637991    -0.50100
C291        C  0.39142629  0.81812992  0.04001867     0.71900
O292        O  0.39762837  0.82196576  0.08227072    -0.45000
C293        C  0.37017890  0.86841375  0.07189177     0.76600
O294        O  0.40768911  0.83682103  0.13768582    -0.56800
O295        O  0.38308273  0.87291878  0.04703628    -0.46900
O296        O  0.40226503  0.86306590  0.14226505    -0.53300
C297        C  0.42730261  0.85798256  0.02015151     0.86800
O298        O  0.38839835  0.83048596  0.01142805    -0.55200
O299        O  0.37135762  0.85413338  0.09185262    -0.58400
In300      In  0.59145075  0.84678782  0.06274626     1.36900
C301        C  0.58437858  0.84813830  0.16076985     0.79200
O302        O  0.60263188  0.87299208  0.05232007    -0.59200
O303        O  0.61886495  0.85348596  0.07506508    -0.50100
C304        C  0.59863007  0.81630683  0.02495741     0.71900
O305        O  0.60101745  0.82955311  0.99938228    -0.45000
C306        C  0.56170840  0.85216519  0.01905804     0.76600
O307        O  0.57984528  0.85944714  0.13047408    -0.56800
O308        O  0.56335402  0.84525359  0.06161681    -0.46900
O309        O  0.59273964  0.83627304  0.14132066    -0.53300
C310        C  0.61710606  0.86895868  0.06689566     0.86800
O311        O  0.59299701  0.81871314  0.06924929    -0.55200
O312        O  0.57537533  0.85627045  0.99737497    -0.58400
In313      In  0.24604093  0.47464116  0.74544593     1.36900
C314        C  0.27338400  0.45798177  0.77718121     0.79200
O315        O  0.25875445  0.47280641  0.66545766    -0.59200
O316        O  0.24519749  0.49486082  0.67786058    -0.50100
C317        C  0.21991767  0.45571844  0.71727581     0.71900
O318        O  0.23348216  0.44961141  0.73336411    -0.45000
C319        C  0.23663850  0.48689355  0.84310580     0.76600
O320        O  0.26004932  0.45074785  0.76347158    -0.56800
O321        O  0.24756736  0.49411826  0.81491334    -0.46900
O322        O  0.27311438  0.47382500  0.77307924    -0.53300
C323        C  0.25362549  0.48623721  0.64557867     0.86800
O324        O  0.21934725  0.47162662  0.71714602    -0.55200
O325        O  0.22985325  0.47481982  0.81976145    -0.58400
In326      In  0.27024352  0.49996425  0.49158527     1.36900
C327        C  0.28783358  0.52677116  0.52251224     0.79200
O328        O  0.27106340  0.51490084  0.41617965    -0.59200
O329        O  0.25030101  0.49899309  0.42373586    -0.50100
C330        C  0.28945299  0.47460304  0.45691141     0.71900
O331        O  0.29545886  0.48799888  0.47521090    -0.45000
C332        C  0.25788574  0.49089478  0.58975783     0.76600
O333        O  0.29456196  0.51283463  0.51176584    -0.56800
O334        O  0.25194701  0.50300346  0.56418359    -0.46900
O335        O  0.27205622  0.52715335  0.51717869    -0.53300
C336        C  0.25830378  0.50901053  0.39438462     0.86800
O337        O  0.27355329  0.47378546  0.45793677    -0.55200
O338        O  0.26841768  0.48274642  0.56330577    -0.58400
In339      In  0.21941112  0.50037415  0.99649820     1.36900
C340        C  0.20258085  0.52765951  0.96544950     0.79200
O341        O  0.21794147  0.51456777  0.07334180    -0.59200
O342        O  0.23980900  0.50040668  0.06224382    -0.50100
C343        C  0.20209301  0.47387760  0.03358371     0.71900
O344        O  0.19512435  0.48687172  0.01621578    -0.45000
C345        C  0.23168688  0.49154865  0.89835255     0.76600
O346        O  0.19541757  0.51394266  0.97649410    -0.56800
O347        O  0.23948286  0.50143310  0.92815374    -0.46900
O348        O  0.21833846  0.52764379  0.97126903    -0.53300
C349        C  0.23137398  0.50952006  0.09319928     0.86800
O350        O  0.21797033  0.47392944  0.02966783    -0.55200
O351        O  0.21883414  0.48547132  0.92015066    -0.58400
In352      In  0.24557284  0.52749176  0.24337585     1.36900
C353        C  0.27148901  0.54554563  0.20528622     0.79200
O354        O  0.24270668  0.50763982  0.31126382    -0.59200
O355        O  0.26136760  0.52594933  0.31695519    -0.50100
C356        C  0.22060596  0.54672567  0.28070072     0.71900
O357        O  0.23486270  0.55257223  0.26858520    -0.45000
C358        C  0.23623727  0.51450036  0.14767593     0.76600
O359        O  0.25760416  0.55200479  0.21823941    -0.56800
O360        O  0.24798804  0.50827906  0.17395340    -0.46900
O361        O  0.27242957  0.52989433  0.21316208    -0.53300
C362        C  0.25383901  0.51412840  0.33963457     0.86800
O363        O  0.21880714  0.53119309  0.27184113    -0.55200
O364        O  0.22859639  0.52586353  0.17217495    -0.58400
In365      In  0.90039836  0.65007618  0.82646754     1.36900
C366        C  0.90533657  0.64577384  0.92413760     0.79200
O367        O  0.88897518  0.66778999  0.76733168    -0.59200
O368        O  0.89776674  0.67799544  0.83663643    -0.50100
C369        C  0.93197203  0.64719487  0.78957342     0.71900
O370        O  0.92821150  0.65504227  0.82965952    -0.45000
C371        C  0.87605002  0.62614808  0.82607721     0.76600
O372        O  0.89652336  0.65762465  0.90738008    -0.56800
O373        O  0.87434711  0.64028605  0.84705242    -0.46900
O374        O  0.91183642  0.63622136  0.89112589    -0.53300
C375        C  0.89105750  0.68077734  0.79449239     0.86800
O376        O  0.91949362  0.64104301  0.76640837    -0.55200
O377        O  0.88958266  0.62464388  0.80086200    -0.58400
In378      In  0.89925623  0.84709481  0.81999137     1.36900
C379        C  0.90573893  0.85225834  0.91676422     0.79200
O380        O  0.89092186  0.87348582  0.79667730    -0.59200
O381        O  0.87274864  0.85739122  0.82970164    -0.50100
C382        C  0.93107965  0.84697490  0.78481349     0.71900
O383        O  0.91915601  0.85309815  0.75936058    -0.45000
C384        C  0.88832375  0.81669110  0.79023189     0.76600
O385        O  0.91008294  0.86250214  0.88266079    -0.56800
O386        O  0.89105902  0.82838660  0.75862396    -0.46900
O387        O  0.89779746  0.83947317  0.90176998    -0.53300
C388        C  0.87620475  0.87198742  0.81441417     0.86800
O389        O  0.92663701  0.84044933  0.82632773    -0.55200
O390        O  0.89047295  0.82079536  0.83593169    -0.66400
In391      In  0.09699983  0.85087341  0.80330047     1.36900
C392        C  0.09480808  0.84487056  0.90199356     0.79200
O393        O  0.10883586  0.83321541  0.74483277    -0.59200
O394        O  0.09655656  0.82281217  0.80972655    -0.50100
C395        C  0.06727867  0.85768011  0.76166756     0.71900
O396        O  0.07911330  0.85124089  0.73592874    -0.45000
C397        C  0.11919622  0.87647809  0.80330479     0.76600
O398        O  0.08207552  0.84597704  0.87425952    -0.56800
O399        O  0.12270814  0.86219445  0.78542757    -0.46900
O400        O  0.10876524  0.84629478  0.87927891    -0.53300
C401        C  0.10457860  0.82013803  0.76903148     0.86800
O402        O  0.07124479  0.86218924  0.80574158    -0.55200
O403        O  0.10403071  0.87820550  0.81621195    -0.58400
In404      In  0.10015539  0.65548082  0.82358825     1.36900
C405        C  0.10388404  0.66061806  0.92198497     0.79200
O406        O  0.12484296  0.64286962  0.80018264    -0.59200
O407        O  0.10713820  0.62871126  0.84283808    -0.50100
C408        C  0.06881966  0.64963127  0.78983823     0.71900
O409        O  0.08168859  0.64510545  0.76472919    -0.45000
C410        C  0.10699311  0.68537257  0.78201829     0.76600
O411        O  0.11385495  0.66679731  0.88949596    -0.56800
O412        O  0.11148769  0.67179770  0.76075684    -0.46900
O413        O  0.09192807  0.65206509  0.90433408    -0.53300
C414        C  0.12169500  0.62941189  0.82377657     0.86800
O415        O  0.07202270  0.65691614  0.83106271    -0.55200
O416        O  0.09897875  0.68356672  0.82313783    -0.58400
In417      In  0.09172181  0.84368744  0.41707309     1.36900
C418        C  0.09024370  0.84286016  0.31654660     0.79200
O419        O  0.06408250  0.84900450  0.41301299    -0.59200
O420        O  0.07559313  0.85174288  0.48502698    -0.50100
C421        C  0.09558985  0.81176260  0.44814880     0.71900
O422        O  0.09615510  0.82404339  0.47844766    -0.45000
C423        C  0.11594644  0.86726723  0.42429613     0.76600
O424        O  0.07728519  0.84401835  0.34429031    -0.56800
O425        O  0.11858523  0.85191637  0.43271982    -0.46900
O426        O  0.10395550  0.84190666  0.33993378    -0.53300
C427        C  0.06221212  0.85220529  0.45959890     0.86800
O428        O  0.09356481  0.81575708  0.40246763    -0.55200
O429        O  0.10075189  0.87080812  0.41669565    -0.58400
In430      In  0.90162075  0.85129182  0.40452747     1.36900
C431        C  0.91602934  0.85759917  0.31586105     0.79200
O432        O  0.88297482  0.87109645  0.43366211    -0.59200
O433        O  0.87875409  0.86004843  0.36163866    -0.50100
C434        C  0.89183171  0.82025486  0.43128917     0.71900
O435        O  0.89617892  0.82417176  0.38678747    -0.45000
C436        C  0.92946139  0.85601783  0.45912551     0.76600
O437        O  0.90976162  0.84349372  0.32684920    -0.56800
O438        O  0.92801755  0.84481142  0.42565581    -0.46900
O439        O  0.91515584  0.86862541  0.35037950    -0.53300
C440        C  0.87409428  0.87074004  0.39410615     0.86800
O441        O  0.89157904  0.83237761  0.46239348    -0.55200
O442        O  0.91642282  0.86478544  0.46648610    -0.58400
In443      In  0.09326767  0.64567304  0.42971635     1.36900
C444        C  0.09887732  0.65108208  0.33141150     0.79200
O445        O  0.11995961  0.63872532  0.45118382    -0.59200
O446        O  0.10337414  0.61902644  0.43050283    -0.50100
C447        C  0.09808227  0.67605002  0.46941918     0.71900
O448        O  0.09161403  0.67346130  0.42665471    -0.45000
C449        C  0.06111569  0.63885722  0.45518907     0.76600
O450        O  0.09887191  0.63654779  0.35009711    -0.56800
O451        O  0.06641292  0.63938466  0.41006133    -0.46900
O452        O  0.09558480  0.66271928  0.36221876    -0.53300
C453        C  0.11821366  0.62331446  0.44098828     0.86800
O454        O  0.10236233  0.66293216  0.49328490    -0.55200
O455        O  0.07242730  0.64042456  0.48810152    -0.58400
In456      In  0.89281870  0.65126199  0.42495490     1.36900
C457        C  0.89971827  0.64228210  0.33122780     0.79200
O458        O  0.92068392  0.65462971  0.41853971    -0.59200
O459        O  0.91139745  0.64347899  0.48655481    -0.50100
C460        C  0.88635416  0.68337649  0.44899591     0.71900
O461        O  0.88531009  0.67179207  0.48175541    -0.45000
C462        C  0.86585810  0.63062838  0.43005999     0.76600
O463        O  0.90265343  0.63269963  0.36819222    -0.56800
O464        O  0.86615391  0.64403713  0.40481526    -0.46900
O465        O  0.89325639  0.65631179  0.34215593    -0.53300
C466        C  0.92408840  0.64824048  0.46079867     0.86800
O467        O  0.88985892  0.67842840  0.40472080    -0.55200
O468        O  0.87865120  0.62849090  0.45741212    -0.58400
In469      In  0.90250477  0.14803078  0.16678812     1.36900
C470        C  0.90769231  0.15459011  0.06926204     0.79200
O471        O  0.87885563  0.13389960  0.19626252    -0.59200
O472        O  0.89269309  0.12306750  0.13608680    -0.50100
C473        C  0.93269439  0.14145504  0.20776007     0.71900
O474        O  0.91906257  0.13712256  0.22953439    -0.45000
C475        C  0.89436436  0.17855735  0.20531603     0.76600
O476        O  0.89680526  0.16232846  0.09529641    -0.56800
O477        O  0.90576214  0.16951210  0.22365488    -0.46900
O478        O  0.91605995  0.14381487  0.09299502    -0.53300
C479        C  0.87978492  0.12219157  0.16378831     0.86800
O480        O  0.93079141  0.14878097  0.16585076    -0.55200
O481        O  0.88637737  0.17164759  0.16976837    -0.58400
In482      In  0.09689569  0.14958695  0.17800716     1.36900
C483        C  0.08622678  0.14291204  0.08502229     0.79200
O484        O  0.10041279  0.17697645  0.15767475    -0.59200
O485        O  0.10702143  0.16986194  0.23216288    -0.50100
C486        C  0.06758025  0.14524272  0.22767015     0.71900
O487        O  0.06966121  0.15530569  0.19119367    -0.45000
C488        C  0.12134980  0.12583789  0.17665042     0.76600
O489        O  0.10063771  0.14875721  0.09334416    -0.56800
O490        O  0.10867371  0.12493753  0.20591173    -0.46900
O491        O  0.07725147  0.14044887  0.12372565    -0.53300
C492        C  0.10550311  0.18166376  0.20047843     0.86800
O493        O  0.08084752  0.13777220  0.24150117    -0.55200
O494        O  0.12219163  0.13931037  0.15186188    -0.58400
In495      In  0.89327355  0.34290920  0.15724953     1.36900
C496        C  0.89531144  0.34004987  0.05803815     0.79200
O497        O  0.88888461  0.32769179  0.23018952    -0.59200
O498        O  0.88878409  0.31518795  0.15872229    -0.50100
C499        C  0.92533235  0.34865341  0.18268339     0.71900
O500        O  0.91318854  0.35504505  0.20751131    -0.45000
C501        C  0.86844156  0.36616766  0.15405710     0.76600
O502        O  0.90260412  0.35167544  0.08178647    -0.56800
O503        O  0.88371394  0.36995154  0.15895403    -0.46900
O504        O  0.88708356  0.32976689  0.08479551    -0.53300
C505        C  0.88781283  0.31387870  0.20627130     0.86800
O506        O  0.92105029  0.33919897  0.14661659    -0.55200
O507        O  0.86557659  0.35061846  0.15670384    -0.58400
In508      In  0.09511634  0.34901720  0.17480876     1.36900
C509        C  0.09759452  0.34096979  0.07812539     0.79200
O510        O  0.10264060  0.37568484  0.20139392    -0.59200
O511        O  0.12039295  0.36145941  0.16002802    -0.50100
C512        C  0.06309527  0.35681613  0.19502837     0.71900
O513        O  0.07269345  0.35095275  0.22876289    -0.45000
C514        C  0.09992128  0.31850365  0.21572939     0.76600
O515        O  0.10945017  0.33862987  0.10853235    -0.56800
O516        O  0.09113789  0.32118454  0.17729775    -0.46900
O517        O  0.08460223  0.34772691  0.09666060    -0.53300
C518        C  0.11691004  0.37536887  0.17998400     0.86800
O519        O  0.07018091  0.35985960  0.15289647    -0.55200
O520        O  0.10577763  0.33165894  0.23636709    -0.58400
In521      In  0.09425017  0.14997783  0.58612909     1.36900
C522        C  0.08616598  0.14593345  0.68241508     0.79200
O523        O  0.07836783  0.14202718  0.51774620    -0.59200
O524        O  0.06612569  0.15114665  0.58424997    -0.50100
C525        C  0.10177064  0.18131249  0.55706528     0.71900
O526        O  0.10508557  0.16876111  0.52910589    -0.45000
C527        C  0.12054556  0.12854173  0.58820219     0.76600
O528        O  0.09354813  0.15896732  0.66656273    -0.56800
O529        O  0.12130390  0.14343322  0.60434858    -0.46900
O530        O  0.08312572  0.13486017  0.64937165    -0.53300
C531        C  0.06460304  0.14548376  0.53992032     0.86800
O532        O  0.09502187  0.17778071  0.59911723    -0.55200
O533        O  0.10681290  0.12487547  0.56724500    -0.58400
In534      In  0.89816331  0.15209269  0.56512038     1.36900
C535        C  0.90790769  0.15021609  0.66019553     0.79200
O536        O  0.88387369  0.12816617  0.54154328    -0.59200
O537        O  0.87254144  0.14431039  0.59570401    -0.50100
C538        C  0.88848158  0.18192932  0.52786314     0.71900
O539        O  0.89281206  0.16991325  0.49912775    -0.45000
C540        C  0.92908153  0.14713834  0.52551808     0.76600
O541        O  0.90409793  0.16392607  0.63945848    -0.56800
O542        O  0.92607609  0.15633431  0.56342705    -0.46900
O543        O  0.90693707  0.13732237  0.63229492    -0.53300
C544        C  0.87172025  0.13058536  0.57204264     0.86800
O545        O  0.88816370  0.17836868  0.57436062    -0.55200
O546        O  0.91617227  0.14049933  0.50599947    -0.58400
In547      In  0.89772907  0.34775478  0.54750040     1.36900
C548        C  0.89730033  0.34688276  0.64687026     0.79200
O549        O  0.92543844  0.34408077  0.55447001    -0.59200
O550        O  0.91715627  0.35734901  0.48941337    -0.50100
C551        C  0.89054697  0.31727409  0.51107353     0.71900
O552        O  0.88922708  0.33028288  0.48364216    -0.45000
C553        C  0.87409499  0.37185070  0.55039127     0.76600
O554        O  0.88788334  0.33764254  0.62059471    -0.56800
O555        O  0.87090089  0.35694653  0.53719033    -0.46900
O556        O  0.90719076  0.35635300  0.62254597    -0.53300
C557        C  0.92945802  0.35169604  0.51434355     0.86800
O558        O  0.89547961  0.31998047  0.55565607    -0.55200
O559        O  0.88953795  0.37500520  0.55449066    -0.58400
In560      In  0.09703729  0.34886278  0.57145665     1.36900
C561        C  0.09387362  0.34548361  0.67048798     0.79200
O562        O  0.12310459  0.35738607  0.54376186    -0.59200
O563        O  0.10847727  0.37438887  0.58701138    -0.50100
C564        C  0.10339622  0.31794161  0.53739581     0.71900
O565        O  0.10919103  0.32365544  0.57835553    -0.45000
C566        C  0.06599594  0.35451652  0.53714993     0.76600
O567        O  0.08912392  0.35857932  0.64806009    -0.56800
O568        O  0.06901077  0.34759436  0.57897052    -0.46900
O569        O  0.09989808  0.33411849  0.64251019    -0.53300
C570        C  0.12250730  0.37125370  0.56698965     0.86800
O571        O  0.09532794  0.32843017  0.51117140    -0.55200
O572        O  0.07892640  0.35900667  0.51211505    -0.58400
In573      In  0.74880620  0.47195130  0.74565512     1.36900
C574        C  0.77645771  0.45471588  0.71671069     0.79200
O575        O  0.73374212  0.47010716  0.66965964    -0.59200
O576        O  0.74729117  0.49226852  0.67792691    -0.50100
C577        C  0.72489162  0.45128088  0.78284330     0.71900
O578        O  0.73882705  0.44606963  0.76577856    -0.45000
C579        C  0.75672251  0.48591513  0.84222503     0.76600
O580        O  0.76297088  0.44775380  0.73117074    -0.56800
O581        O  0.74326460  0.48921937  0.81876487    -0.46900
O582        O  0.77604082  0.47063058  0.71736777    -0.53300
C583        C  0.73798287  0.48368084  0.64841240     0.86800
O584        O  0.72291577  0.46700896  0.77977362    -0.55200
O585        O  0.76649000  0.47735901  0.81429382    -0.58400
In586      In  0.71747847  0.49757199  0.49894079     1.36900
C587        C  0.69870428  0.47142265  0.46534597     0.79200
O588        O  0.71650048  0.51264606  0.42280942    -0.59200
O589        O  0.73720802  0.49690120  0.42911034    -0.50100
C590        C  0.69927907  0.52403930  0.53329028     0.71900
O591        O  0.69285536  0.50997399  0.52236409    -0.45000
C592        C  0.73196816  0.48852026  0.59432005     0.76600
O593        O  0.69242033  0.48449877  0.48511135    -0.56800
O594        O  0.73741882  0.50047242  0.56664920    -0.46900
O595        O  0.71461255  0.47128211  0.46473146    -0.53300
C596        C  0.72928052  0.50684576  0.40006851     0.86800
O597        O  0.71502824  0.52473563  0.52649461    -0.55200
O598        O  0.72044625  0.48066667  0.57152388    -0.58400
In599      In  0.77190263  0.49897254  0.99703712     1.36900
C600        C  0.78741567  0.47022011  0.02454873     0.79200
O601        O  0.77275940  0.51262265  0.07595918    -0.59200
O602        O  0.75073435  0.49914590  0.06314225    -0.50100
C603        C  0.78980197  0.52608837  0.96588398     0.71900
O604        O  0.79645211  0.51300247  0.98378467    -0.45000
C605        C  0.76109883  0.49078671  0.89752315     0.76600
O606        O  0.79519337  0.48373609  0.01531685    -0.56800
O607        O  0.75159305  0.49799253  0.93035467    -0.46900
O608        O  0.77165946  0.47125616  0.01966960    -0.53300
C609        C  0.75893400  0.50788162  0.09521656     0.86800
O610        O  0.77387851  0.52575534  0.96593486    -0.55200
O611        O  0.77521182  0.48741724  0.91636403    -0.58400
In612      In  0.74364374  0.52530231  0.24815948     1.36900
C613        C  0.76950044  0.54315642  0.28566817     0.79200
O614        O  0.72677188  0.52364151  0.32159463    -0.59200
O615        O  0.74543869  0.50547235  0.31664841    -0.50100
C616        C  0.71880953  0.54561693  0.21563821     0.71900
O617        O  0.73306480  0.55092991  0.22894460    -0.45000
C618        C  0.75343522  0.51275692  0.15019309     0.76600
O619        O  0.75587325  0.54974213  0.27196543    -0.56800
O620        O  0.74139473  0.50654494  0.17638363    -0.46900
O621        O  0.77023667  0.52742001  0.27892662    -0.53300
C622        C  0.73405145  0.51191098  0.34483040     0.86800
O623        O  0.71697199  0.52985507  0.21964917    -0.55200
O624        O  0.76087073  0.52399286  0.17546951    -0.58400
C625        C  0.81467218  0.42466871  0.66127113     0.18700
C626        C  0.80939679  0.41079794  0.63224868    -0.10400
C627        C  0.82120260  0.40034295  0.60772865    -0.11300
C628        C  0.83849838  0.40359088  0.61176611     0.20300
C629        C  0.84382115  0.41717765  0.64200692    -0.13300
C630        C  0.83199447  0.42765817  0.66654444    -0.11600
C631        C  0.85071579  0.39298365  0.58518804     0.01200
C632        C  0.86114121  0.38376737  0.56556243    -0.31600
C633        C  0.80223114  0.43602248  0.68370807     0.02600
C634        C  0.79099194  0.44502541  0.69979477    -0.33300
H635        H  0.79610873  0.40820376  0.62788459     0.13700
H636        H  0.81681257  0.38983121  0.58509516     0.13500
H637        H  0.85711431  0.41980053  0.64612682     0.13300
H638        H  0.83636516  0.43823005  0.68896473     0.12400
C639        C  0.01578484  0.35668737  0.50680118     0.18700
C640        C  0.00557672  0.36051736  0.54911706    -0.10400
C641        C  0.98801110  0.35992928  0.54538810    -0.11300
C642        C  0.98039037  0.35550121  0.49929928     0.20300
C643        C  0.99058311  0.35152455  0.45699657    -0.13300
C644        C  0.00820114  0.35211373  0.46073974    -0.11600
C645        C  0.96216646  0.35474529  0.49644866     0.01200
C646        C  0.94696337  0.35381216  0.50005448    -0.31600
C647        C  0.03395508  0.35701327  0.51156963     0.02600
C648        C  0.04891471  0.35661686  0.52000090    -0.33300
H649        H  0.01120087  0.36391265  0.58511501     0.13700
H650        H  0.98035763  0.36289508  0.57857271     0.13500
H651        H  0.98493121  0.34793653  0.42122779     0.13300
H652        H  0.01589026  0.34895679  0.42780490     0.12400
C653        C  0.88281510  0.26722195  0.49015915     0.18700
C654        C  0.88677725  0.25737206  0.44727214    -0.10400
C655        C  0.88648297  0.23973131  0.45042528    -0.11300
C656        C  0.88222631  0.23178688  0.49647311     0.20300
C657        C  0.87792465  0.24166308  0.53898140    -0.13300
C658        C  0.87821566  0.25925777  0.53583260    -0.11600
C659        C  0.88325129  0.21363724  0.50145474     0.01200
C660        C  0.88501349  0.19877695  0.51021908    -0.31600
C661        C  0.88452832  0.28538737  0.48891809     0.02600
C662        C  0.88680121  0.30036657  0.49430391    -0.33300
H663        H  0.89044877  0.26330335  0.41179402     0.13700
H664        H  0.88992673  0.23230761  0.41727824     0.13500
H665        H  0.87470487  0.23576523  0.57490169     0.13300
H666        H  0.87522182  0.26666297  0.56943635     0.12400
C667        C  0.97956632  0.14344342  0.50071193     0.18700
C668        C  0.98815829  0.15242816  0.53843474    -0.10400
C669        C  0.00575910  0.15221081  0.54009481    -0.11300
C670        C  0.01508338  0.14300487  0.50400771     0.20300
C671        C  0.00654849  0.13409664  0.46587476    -0.13300
C672        C  0.98885744  0.13431434  0.46420677    -0.11600
C673        C  0.03329839  0.14259690  0.50774077     0.01200
C674        C  0.04814650  0.14328408  0.51780935    -0.31600
C675        C  0.96127887  0.14344340  0.50103191     0.02600
C676        C  0.94618203  0.14443105  0.50782230    -0.33300
H677        H  0.98121515  0.15952770  0.56702358     0.13700
H678        H  0.01209964  0.15912232  0.56983077     0.13500
H679        H  0.01354223  0.12688251  0.43768622     0.13300
H680        H  0.98245851  0.12728892  0.43486055     0.12400
C681        C  0.10567760  0.26703768  0.52440614     0.18700
C682        C  0.09782054  0.25897235  0.56572017    -0.10400
C683        C  0.09809143  0.24140860  0.56950505    -0.11300
C684        C  0.10622823  0.23171129  0.53200648     0.20300
C685        C  0.11411829  0.23976234  0.49071094    -0.13300
C686        C  0.11385112  0.25736572  0.48692617    -0.11600
C687        C  0.10615564  0.21355059  0.53594564     0.01200
C688        C  0.10496511  0.19853837  0.54273588    -0.31600
C689        C  0.10552380  0.28520911  0.52146098     0.02600
C690        C  0.10493720  0.30038734  0.52440924    -0.33300
H691        H  0.09149504  0.26627261  0.59509710     0.13700
H692        H  0.09192486  0.23538898  0.60160455     0.13500
H693        H  0.12043984  0.23244294  0.46140979     0.13300
H694        H  0.12001553  0.26341340  0.45490118     0.12400
C695        C  0.09564602  0.33929149  0.82240045     0.18700
C696        C  0.10422603  0.35149651  0.85044984    -0.10400
C697        C  0.10598941  0.34952064  0.90267710    -0.11300
C698        C  0.09919860  0.33534912  0.92672481     0.20300
C699        C  0.09092110  0.32292716  0.89858560    -0.13300
C700        C  0.08918185  0.32489430  0.84617289    -0.11600
C701        C  0.09938967  0.33462135  0.98079276     0.01200
C702        C  0.09885550  0.33655762  0.02591252    -0.31600
C703        C  0.09362992  0.34160759  0.76912303     0.02600
C704        C  0.09297389  0.34365394  0.72411617    -0.33300
H705        H  0.10931874  0.36260096  0.83209515     0.13700
H706        H  0.11227317  0.35923738  0.92451597     0.13500
H707        H  0.08552184  0.31202220  0.91721671     0.13300
H708        H  0.08260873  0.31536715  0.82436830     0.12400
C709        C  0.83417148  0.40174164  0.10741962     0.18700
C710        C  0.82115129  0.40839249  0.13785138    -0.10400
C711        C  0.81092699  0.42144574  0.11964596    -0.11300
C712        C  0.81353245  0.42807834  0.07065385     0.20300
C713        C  0.82626335  0.42111944  0.03968634    -0.13300
C714        C  0.83648728  0.40806183  0.05789093    -0.11600
C715        C  0.80369422  0.44243316  0.05322180     0.01200
C716        C  0.79597476  0.45485923  0.03976078    -0.31600
C717        C  0.84549289  0.38893283  0.12737852     0.02600
C718        C  0.85555495  0.37852639  0.14218841    -0.33300
H719        H  0.81907833  0.40369813  0.17609689     0.13700
H720        H  0.80118549  0.42657687  0.14419193     0.13500
H721        H  0.82850912  0.42599779  0.00172428     0.13300
H722        H  0.84640207  0.40310866  0.03362874     0.12400
C723        C  0.89636202  0.34423960  0.79994602     0.18700
C724        C  0.88108658  0.34270348  0.82642091    -0.10400
C725        C  0.88111653  0.34074265  0.87905979    -0.11300
C726        C  0.89640546  0.34029689  0.90484590     0.20300
C727        C  0.91167066  0.34185213  0.87834670    -0.13300
C728        C  0.91163973  0.34381333  0.82573368    -0.11600
C729        C  0.89639607  0.33894630  0.95878446     0.01200
C730        C  0.89609108  0.33885688  0.00426058    -0.31600
C731        C  0.89642731  0.34582718  0.74610231     0.02600
C732        C  0.89680262  0.34657121  0.70071523    -0.33300
H733        H  0.86925149  0.34299451  0.80644677     0.13700
H734        H  0.86926539  0.33965512  0.89965354     0.13500
H735        H  0.92350424  0.34162657  0.89831153     0.13300
H736        H  0.92349243  0.34496668  0.80516567     0.12400
C737        C  0.01160632  0.35789283  0.20243581     0.18700
C738        C  0.00341913  0.34326634  0.21948903    -0.10400
C739        C  0.98582684  0.34199107  0.21788901    -0.11300
C740        C  0.97617049  0.35532000  0.19922388     0.20300
C741        C  0.98435213  0.36990402  0.18167992    -0.13300
C742        C  0.00197266  0.37118098  0.18327782    -0.11600
C743        C  0.95796955  0.35382336  0.19709330     0.01200
C744        C  0.94288392  0.35193035  0.19315955    -0.31600
C745        C  0.02985279  0.35895547  0.20340442     0.02600
C746        C  0.04511844  0.35877458  0.20213397    -0.33300
H747        H  0.01063947  0.33282061  0.23391587     0.13700
H748        H  0.97975384  0.33056889  0.23115610     0.13500
H749        H  0.97712674  0.38026009  0.16669545     0.13300
H750        H  0.00807619  0.38251429  0.16945207     0.12400
C751        C  0.07631400  0.13918884  0.83203416     0.18700
C752        C  0.08720119  0.12818745  0.85674111    -0.10400
C753        C  0.08660494  0.12687426  0.90952507    -0.11300
C754        C  0.07512982  0.13656680  0.93753840     0.20300
C755        C  0.06377854  0.14710877  0.91277479    -0.13300
C756        C  0.06436884  0.14841876  0.85982772    -0.11600
C757        C  0.07679283  0.13747251  0.99141215     0.01200
C758        C  0.08042512  0.13948740  0.03510359    -0.31600
C759        C  0.07838893  0.14179796  0.77866034     0.02600
C760        C  0.08156047  0.14382237  0.73443259    -0.33300
H761        H  0.09652675  0.12110553  0.83538177     0.13700
H762        H  0.09557929  0.11888532  0.92861332     0.13500
H763        H  0.05503594  0.15481228  0.93441935     0.13300
H764        H  0.05597492  0.15702800  0.84080724     0.12400
C765        C  0.10844329  0.23265450  0.22487510     0.18700
C766        C  0.12304809  0.24259474  0.22146561    -0.10400
C767        C  0.12206802  0.26020288  0.22620966    -0.11300
C768        C  0.10647960  0.26809182  0.23449702     0.20300
C769        C  0.09191068  0.25813942  0.23795528    -0.13300
C770        C  0.09288697  0.24057138  0.23321430    -0.11600
C771        C  0.10519741  0.28635274  0.23612384     0.01200
C772        C  0.10330645  0.30144541  0.23189724    -0.31600
C773        C  0.10917360  0.21444233  0.21869339     0.02600
C774        C  0.10844102  0.19930578  0.21206792    -0.33300
H775        H  0.13516871  0.23676091  0.21470359     0.13700
H776        H  0.13343868  0.26766842  0.22279189     0.13500
H777        H  0.07973547  0.26397876  0.24369892     0.13300
H778        H  0.08145642  0.23316045  0.23562119     0.12400
C779        C  0.91553492  0.15273202  0.81110199     0.18700
C780        C  0.90878399  0.16743168  0.83247678    -0.10400
C781        C  0.90794989  0.16930819  0.88524599    -0.11300
C782        C  0.91389180  0.15649220  0.91659572     0.20300
C783        C  0.92092003  0.14191674  0.89519777    -0.13300
C784        C  0.92173574  0.14003166  0.84240011    -0.11600
C785        C  0.91199447  0.15777308  0.97068189     0.01200
C786        C  0.91007901  0.15729299  0.01603778    -0.31600
C787        C  0.91494199  0.15036913  0.75721166     0.02600
C788        C  0.91260560  0.14950022  0.71226773    -0.33300
H789        H  0.90384447  0.17723955  0.80840058     0.13700
H790        H  0.90239191  0.18057000  0.90156045     0.13500
H791        H  0.92543515  0.13191367  0.91928904     0.13300
H792        H  0.92685222  0.12856247  0.82606357     0.12400
C793        C  0.01760094  0.13921548  0.25855218     0.18700
C794        C  0.00928582  0.12380382  0.25098010    -0.10400
C795        C  0.99165856  0.12322158  0.24682268    -0.11300
C796        C  0.98210517  0.13803742  0.25012737     0.20300
C797        C  0.99040402  0.15335985  0.25913621    -0.13300
C798        C  0.00799914  0.15394026  0.26328909    -0.11600
C799        C  0.96406213  0.13782906  0.24055937     0.01200
C800        C  0.94935086  0.13872103  0.22848196    -0.31600
C801        C  0.03590144  0.14023799  0.25648049     0.02600
C802        C  0.05088551  0.14199153  0.24827693    -0.33300
H803        H  0.01644858  0.11231492  0.24675455     0.13700
H804        H  0.98553378  0.11126575  0.23958571     0.13500
H805        H  0.98331549  0.16494635  0.26151046     0.13300
H806        H  0.01415908  0.16598947  0.26866370     0.12400
C807        C  0.88755506  0.26440164  0.24350528     0.18700
C808        C  0.87363660  0.25451756  0.25787310    -0.10400
C809        C  0.87448500  0.23685311  0.25514704    -0.11300
C810        C  0.88926101  0.22888950  0.23792720     0.20300
C811        C  0.90327804  0.23879809  0.22491630    -0.13300
C812        C  0.90243526  0.25640003  0.22766440    -0.11600
C813        C  0.88994000  0.21071819  0.23090102     0.01200
C814        C  0.89139453  0.19580569  0.22140410    -0.31600
C815        C  0.88632698  0.28261842  0.24022132     0.02600
C816        C  0.88632571  0.29749791  0.22989240    -0.33300
H817        H  0.86198191  0.26045723  0.26985911     0.13700
H818        H  0.86351999  0.22944995  0.26527412     0.13500
H819        H  0.91478756  0.23291811  0.21141556     0.13300
H820        H  0.91325968  0.26378616  0.21604160     0.12400
C821        C  0.80582266  0.57325333  0.35062189     0.18700
C822        C  0.80059645  0.58867184  0.37161942    -0.10400
C823        C  0.81235213  0.59989280  0.39265261    -0.11300
C824        C  0.82954279  0.59586323  0.39312933     0.20300
C825        C  0.83474798  0.58035600  0.37260030    -0.13300
C826        C  0.82298586  0.56913061  0.35155145    -0.11600
C827        C  0.84187460  0.60791673  0.41223699     0.01200
C828        C  0.85251928  0.61821349  0.42415770    -0.31600
C829        C  0.79362590  0.56191222  0.32744544     0.02600
C830        C  0.78300034  0.55298079  0.30804090    -0.33300
H831        H  0.78741180  0.59212192  0.37127813     0.13700
H832        H  0.80805091  0.61179779  0.40796437     0.13500
H833        H  0.84796041  0.57701186  0.37227229     0.13300
H834        H  0.82730574  0.55732625  0.33555542     0.12400
C835        C  0.01001986  0.63999167  0.47588931     0.18700
C836        C  0.99994954  0.63197705  0.43958614    -0.10400
C837        C  0.98240073  0.63363944  0.44152928    -0.11300
C838        C  0.97466669  0.64334090  0.47982379     0.20300
C839        C  0.98473180  0.65155367  0.51581985    -0.13300
C840        C  0.00232370  0.64988779  0.51387034    -0.11600
C841        C  0.95648131  0.64503371  0.48096213     0.01200
C842        C  0.94137156  0.64631020  0.47635209    -0.31600
C843        C  0.02820193  0.63842413  0.47299971     0.02600
C844        C  0.04335137  0.63776749  0.46733083    -0.33300
H845        H  0.00567096  0.62444524  0.40963159     0.13700
H846        H  0.97485820  0.62736151  0.41310961     0.13500
H847        H  0.97899608  0.65924875  0.54535899     0.13300
H848        H  0.00990436  0.65632391  0.54186417     0.12400
C849        C  0.88388031  0.73453095  0.46281513     0.18700
C850        C  0.89293050  0.74382936  0.49891122    -0.10400
C851        C  0.89355854  0.76146118  0.49610920    -0.11300
C852        C  0.88514773  0.76996067  0.45717829     0.20300
C853        C  0.87606240  0.76065688  0.42125820    -0.13300
C854        C  0.87543509  0.74305692  0.42405294    -0.11600
C855        C  0.88642936  0.78809201  0.45245989     0.01200
C856        C  0.88819680  0.80303949  0.44512495    -0.31600
C857        C  0.88383033  0.71627834  0.46383570     0.02600
C858        C  0.88435345  0.70107282  0.46036834    -0.33300
H859        H  0.89965192  0.73745277  0.52883619     0.13700
H860        H  0.90075781  0.76843838  0.52391421     0.13500
H861        H  0.86962030  0.76699753  0.39068779     0.13300
H862        H  0.86851739  0.73608253  0.39559553     0.12400
C863        C  0.09927362  0.72623557  0.48931396     0.18700
C864        C  0.10368967  0.73666762  0.53021863    -0.10400
C865        C  0.10285699  0.75423102  0.52529420    -0.11300
C866        C  0.09760454  0.76145236  0.47943172     0.20300
C867        C  0.09297750  0.75098200  0.43888941    -0.13300
C868        C  0.09380883  0.73348383  0.44379156    -0.11600
C869        C  0.09726471  0.77953061  0.47307310     0.01200
C870        C  0.09679542  0.79443822  0.46392909    -0.31600
C871        C  0.10033613  0.70811563  0.49291211     0.02600
C872        C  0.10017830  0.69298960  0.48784637    -0.33300
H873        H  0.10788076  0.73125191  0.56569701     0.13700
H874        H  0.10644078  0.76215180  0.55697626     0.13500
H875        H  0.08886740  0.75635424  0.40323567     0.13300
H876        H  0.09030515  0.72559724  0.41191906     0.12400
C877        C  0.01322642  0.85934009  0.50126206     0.18700
C878        C  0.00471337  0.87253566  0.47750693    -0.10400
C879        C  0.98711504  0.87319160  0.47884026    -0.11300
C880        C  0.97780561  0.86065486  0.50391775     0.20300
C881        C  0.98631100  0.84777061  0.52938091    -0.13300
C882        C  0.00396215  0.84711873  0.52807096    -0.11600
C883        C  0.95973712  0.85997469  0.49772753     0.01200
C884        C  0.94523396  0.85876021  0.48456856    -0.31600
C885        C  0.03121023  0.85755009  0.49361669     0.02600
C886        C  0.04580914  0.85559716  0.48136861    -0.33300
H887        H  0.01165622  0.88198765  0.45628576     0.13700
H888        H  0.98075114  0.88310766  0.45850423     0.13500
H889        H  0.97930923  0.83787806  0.54846807     0.13300
H890        H  0.01033344  0.83676320  0.54630116     0.12400
C891        C  0.10820658  0.66165632  0.07502503     0.18700
C892        C  0.10958584  0.67600224  0.10580594    -0.10400
C893        C  0.10900010  0.67439143  0.15877120    -0.11300
C894        C  0.10703669  0.65845395  0.18068787     0.20300
C895        C  0.10605533  0.64412636  0.14984790    -0.13300
C896        C  0.10663535  0.64573116  0.09708727    -0.11600
C897        C  0.10501078  0.65666922  0.23455196     0.01200
C898        C  0.10240513  0.65423598  0.27900040    -0.31600
C899        C  0.10753885  0.66311439  0.02082259     0.02600
C900        C  0.10613910  0.66275985  0.97538371    -0.33300
H901        H  0.11075798  0.68835615  0.08894520     0.13700
H902        H  0.10970882  0.68555477  0.18252090     0.13500
H903        H  0.10447409  0.63178971  0.16655522     0.13300
H904        H  0.10550963  0.63457531  0.07345214     0.12400
C905        C  0.08905423  0.84234588  0.16189040     0.18700
C906        C  0.08946092  0.85750576  0.13491304    -0.10400
C907        C  0.09021247  0.85729570  0.08179686    -0.11300
C908        C  0.09057465  0.84192956  0.05560879     0.20300
C909        C  0.08992396  0.82677127  0.08251766    -0.13300
C910        C  0.08916873  0.82698148  0.13565790    -0.11600
C911        C  0.09202544  0.84181068  0.00121979     0.01200
C912        C  0.09342221  0.84260598  0.95572300    -0.31600
C913        C  0.08902941  0.84254022  0.21647389     0.02600
C914        C  0.08944724  0.84266027  0.26221318    -0.33300
H915        H  0.08939468  0.86944728  0.15492077     0.13700
H916        H  0.09070854  0.86907706  0.06119925     0.13500
H917        H  0.09019537  0.81483720  0.06249852     0.13300
H918        H  0.08887392  0.81520158  0.15627435     0.12400
C919        C  0.11157269  0.73476709  0.74583133     0.18700
C920        C  0.09648630  0.74337609  0.75509128    -0.10400
C921        C  0.09602525  0.76095089  0.75333935    -0.11300
C922        C  0.11066236  0.77016102  0.74230469     0.20300
C923        C  0.12575177  0.76158665  0.73222476    -0.13300
C924        C  0.12621560  0.74393025  0.73398909    -0.11600
C925        C  0.11016631  0.78833913  0.74487019     0.01200
C926        C  0.10837013  0.80325364  0.75241799    -0.31600
C927        C  0.11193936  0.71667252  0.75173335     0.02600
C928        C  0.11055238  0.70189503  0.76199015    -0.33300
H929        H  0.08509476  0.73649185  0.76470159     0.13700
H930        H  0.08432207  0.76737245  0.76162820     0.13500
H931        H  0.13721237  0.76854354  0.72403331     0.13300
H932        H  0.13799221  0.73747874  0.72712884     0.12400
C933        C  0.91938085  0.85869650  0.06365739     0.18700
C934        C  0.91729279  0.87420702  0.08820369    -0.10400
C935        C  0.92057371  0.87565659  0.14011327    -0.11300
C936        C  0.92599619  0.86159761  0.16732498     0.20300
C937        C  0.92876018  0.84627313  0.14223498    -0.13300
C938        C  0.92547213  0.84482403  0.09036354    -0.11600
C939        C  0.92592423  0.86205127  0.22175640     0.01200
C940        C  0.92282073  0.86088414  0.26641662    -0.31600
C941        C  0.91438709  0.85673149  0.01188178     0.02600
C942        C  0.91007511  0.85475864  0.96866766    -0.33300
H943        H  0.91255259  0.88498832  0.06767445     0.13700
H944        H  0.91813757  0.88746076  0.15942877     0.13500
H945        H  0.93268005  0.83526057  0.16323092     0.13300
H946        H  0.92708546  0.83278447  0.07156097     0.12400
C947        C  0.01680941  0.85509211  0.74373354     0.18700
C948        C  0.00619706  0.86914375  0.74499692    -0.10400
C949        C  0.98874876  0.86708768  0.75064883    -0.11300
C950        C  0.98169829  0.85095032  0.75514014     0.20300
C951        C  0.99232720  0.83687890  0.75419804    -0.13300
C952        C  0.00979082  0.83893827  0.74853392    -0.11600
C953        C  0.96364198  0.84897194  0.76172917     0.01200
C954        C  0.94861012  0.84785701  0.76954324    -0.31600
C955        C  0.03491091  0.85724562  0.74109789     0.02600
C956        C  0.05003806  0.85827875  0.74522223    -0.33300
H957        H  0.01142232  0.88172366  0.74214042     0.13700
H958        H  0.98076593  0.87808599  0.75179285     0.13500
H959        H  0.98713100  0.82431734  0.75811360     0.13300
H960        H  0.01782241  0.82796396  0.74843406     0.12400
C961        C  0.82017838  0.56369511  0.90554624     0.18700
C962        C  0.81398831  0.57903493  0.88704772    -0.10400
C963        C  0.82502379  0.59128523  0.86687357    -0.11300
C964        C  0.84246578  0.58841698  0.86471161     0.20300
C965        C  0.84862780  0.57301188  0.88273441    -0.13300
C966        C  0.83760177  0.56077211  0.90289182    -0.11600
C967        C  0.85404311  0.60144389  0.84606053     0.01200
C968        C  0.86392367  0.61253871  0.83379997    -0.31600
C969        C  0.80880800  0.55102439  0.92744696     0.02600
C970        C  0.79979247  0.54005547  0.94558190    -0.33300
H971        H  0.80060774  0.58160536  0.88854904     0.13700
H972        H  0.81995299  0.60306300  0.85342576     0.13500
H973        H  0.86202353  0.57049877  0.88169168     0.13300
H974        H  0.84270092  0.54906199  0.91677830     0.12400
C975        C  0.90815317  0.63856944  0.07585646     0.18700
C976        C  0.89331318  0.63325468  0.10002212    -0.10400
C977        C  0.89275724  0.63174627  0.15279708    -0.11300
C978        C  0.90704227  0.63552681  0.18127717     0.20300
C979        C  0.92196050  0.64064157  0.15710874    -0.13300
C980        C  0.92252063  0.64214470  0.10424427    -0.11600
C981        C  0.90579840  0.63574169  0.23540866     0.01200
C982        C  0.90351580  0.63775609  0.28009857    -0.31600
C983        C  0.90833454  0.64094393  0.02208924     0.02600
C984        C  0.90749293  0.64315627  0.97713123    -0.33300
H985        H  0.88213518  0.63058250  0.07818647     0.13700
H986        H  0.88110644  0.62802811  0.17146750     0.13500
H987        H  0.93296679  0.64382241  0.17912657     0.13300
H988        H  0.93400272  0.64636784  0.08563966     0.12400
C989        C  0.01837587  0.64484022  0.76269468     0.18700
C990        C  0.00927797  0.65918234  0.74869092    -0.10400
C991        C  0.99160980  0.65891054  0.74863710    -0.11300
C992        C  0.98277198  0.64429340  0.76258703     0.20300
C993        C  0.99187181  0.62987374  0.77596277    -0.13300
C994        C  0.00955276  0.63014616  0.77600962    -0.11600
C995        C  0.96447948  0.64445933  0.76617945     0.01200
C996        C  0.94936917  0.64527502  0.77333255    -0.31600
C997        C  0.03661541  0.64556026  0.76650909     0.02600
C998        C  0.05162618  0.64686693  0.77387198    -0.33300
H999        H  0.01583606  0.67069417  0.73872050     0.13700
H1000       H  0.98483891  0.67021080  0.73861962     0.13500
H1001       H  0.98530290  0.61850722  0.78727651     0.13300
H1002       H  0.01632896  0.61898773  0.78736589     0.12400
C1003       C  0.88037162  0.76631366  0.77215444     0.18700
C1004       C  0.88255041  0.75764166  0.81805101    -0.10400
C1005       C  0.88307894  0.74001183  0.81868094    -0.11300
C1006       C  0.88143316  0.73075328  0.77343586     0.20300
C1007       C  0.87873546  0.73938130  0.72765639    -0.13300
C1008       C  0.87820946  0.75707418  0.72702294    -0.11600
C1009       C  0.88348555  0.71256820  0.77425612     0.01200
C1010       C  0.88633044  0.69767682  0.77980221    -0.31600
C1011       C  0.88150569  0.78458027  0.77165210     0.02600
C1012       C  0.88384461  0.79960832  0.77636573    -0.33300
H1013       H  0.88427392  0.76452844  0.85325452     0.13700
H1014       H  0.88518499  0.73360441  0.85440344     0.13500
H1015       H  0.87744498  0.73247205  0.69233349     0.13300
H1016       H  0.87653892  0.76353505  0.69117764     0.12400
C1017       C  0.15773123  0.59291343  0.40218366     0.18700
C1018       C  0.17426650  0.59916673  0.40064709    -0.10400
C1019       C  0.18713750  0.59003362  0.37606606    -0.11300
C1020       C  0.18361179  0.57453103  0.35258259     0.20300
C1021       C  0.16713911  0.56818369  0.35483823    -0.13300
C1022       C  0.15428972  0.57730072  0.37939092    -0.11600
C1023       C  0.19676021  0.56515082  0.32602633     0.01200
C1024       C  0.20755009  0.55692407  0.30434729    -0.31600
C1025       C  0.14409086  0.60297803  0.42353663     0.02600
C1026       C  0.13233527  0.61189435  0.43590661    -0.33300
H1027       H  0.17717174  0.61126897  0.41770211     0.13700
H1028       H  0.19975341  0.59513792  0.37487908     0.13500
H1029       H  0.16415875  0.55622077  0.33704409     0.13300
H1030       H  0.14162468  0.57231425  0.37980092     0.12400
C1031       C  0.15444733  0.59236274  0.86629480     0.18700
C1032       C  0.17198853  0.59278175  0.85931353    -0.10400
C1033       C  0.18215463  0.58018567  0.88042384    -0.11300
C1034       C  0.17490453  0.56703979  0.90887278     0.20300
C1035       C  0.15739393  0.56671494  0.91605565    -0.13300
C1036       C  0.14725315  0.57927527  0.89498416    -0.11600
C1037       C  0.18526044  0.55371782  0.92988055     0.01200
C1038       C  0.19340569  0.54211466  0.94676286    -0.31600
C1039       C  0.14375323  0.60544073  0.84544891     0.02600
C1040       C  0.13401997  0.61628792  0.83200612    -0.33300
H1041       H  0.17781588  0.60283602  0.83757012     0.13700
H1042       H  0.19563855  0.58067249  0.87442447     0.13500
H1043       H  0.15154034  0.55669060  0.93786718     0.13300
H1044       H  0.13377583  0.57877630  0.90110328     0.12400
C1045       C  0.14999107  0.41375725  0.14669382     0.18700
C1046       C  0.16655208  0.40920301  0.13354222    -0.10400
C1047       C  0.17773977  0.42105393  0.11218041    -0.11300
C1048       C  0.17254486  0.43767095  0.10351530     0.20300
C1049       C  0.15611841  0.44233035  0.11783274    -0.13300
C1050       C  0.14493046  0.43047867  0.13916898    -0.11600
C1051       C  0.18376856  0.44978839  0.07866231     0.01200
C1052       C  0.19252016  0.46033001  0.05752269    -0.31600
C1053       C  0.13800562  0.40106520  0.16470095     0.02600
C1054       C  0.12814839  0.38980474  0.17532966    -0.33300
H1055       H  0.17073627  0.39636890  0.13883843     0.13700
H1056       H  0.19034380  0.41716427  0.10159123     0.13500
H1057       H  0.15183559  0.45508242  0.11164126     0.13300
H1058       H  0.13222261  0.43429138  0.14884014     0.12400
C1059       C  0.16094932  0.40182276  0.61235964     0.18700
C1060       C  0.16232714  0.40264384  0.66558779    -0.10400
C1061       C  0.17387729  0.41367463  0.68828214    -0.11300
C1062       C  0.18419256  0.42403034  0.65802870     0.20300
C1063       C  0.18302097  0.42300042  0.60481798    -0.13300
C1064       C  0.17146601  0.41197310  0.58212107    -0.11600
C1065       C  0.19600827  0.43564471  0.68123819     0.01200
C1066       C  0.20640966  0.44515112  0.69888841    -0.31600
C1067       C  0.14832044  0.39103594  0.58934352     0.02600
C1068       C  0.13694509  0.38208418  0.57470300    -0.33300
H1069       H  0.15432714  0.39490035  0.68957664     0.13700
H1070       H  0.17466248  0.41421354  0.72942476     0.13500
H1071       H  0.19094828  0.43082124  0.58086169     0.13300
H1072       H  0.17060521  0.41151646  0.54099891     0.12400
C1073       C  0.51231469  0.85726536  0.98452434     0.18700
C1074       C  0.50256341  0.84504641  0.00950772    -0.10400
C1075       C  0.48499255  0.84597262  0.00921672    -0.11300
C1076       C  0.47689979  0.85913292  0.98396452     0.20300
C1077       C  0.48660904  0.87125768  0.95819474    -0.13300
C1078       C  0.50426818  0.87032519  0.95847938    -0.11600
C1079       C  0.45874159  0.86044491  0.98761655     0.01200
C1080       C  0.44384720  0.86017963  0.99787257    -0.31600
C1081       C  0.53047112  0.85666819  0.98851896     0.02600
C1082       C  0.54524603  0.85515470  0.99829389    -0.33300
H1083       H  0.50855929  0.83494587  0.03006616     0.13700
H1084       H  0.47770274  0.83656812  0.02958405     0.13500
H1085       H  0.48056564  0.88156280  0.93874403     0.13300
H1086       H  0.51161898  0.87992416  0.93922276     0.12400
C1087       C  0.68326991  0.57859591  0.16018105     0.18700
C1088       C  0.67624536  0.59118373  0.19142723    -0.10400
C1089       C  0.66437109  0.60252172  0.17199466    -0.11300
C1090       C  0.65933229  0.60147869  0.12095062     0.20300
C1091       C  0.66647144  0.58900192  0.08960464    -0.13300
C1092       C  0.67834227  0.57766769  0.10902927    -0.11600
C1093       C  0.64662498  0.61291434  0.10124116     0.01200
C1094       C  0.63563913  0.62234451  0.08663913    -0.31600
C1095       C  0.69544860  0.56666435  0.18041407     0.02600
C1096       C  0.70579801  0.55682302  0.19679916    -0.33300
H1097       H  0.67987806  0.59219157  0.23097242     0.13700
H1098       H  0.65903819  0.61203028  0.19690629     0.13500
H1099       H  0.66277860  0.58794609  0.05012572     0.13300
H1100       H  0.68361075  0.56811487  0.08416822     0.12400
C1101       C  0.60425316  0.73143353  0.97679953     0.18700
C1102       C  0.61764351  0.74128111  0.95824512    -0.10400
C1103       C  0.61709756  0.75889551  0.96269353    -0.11300
C1104       C  0.60317860  0.76677246  0.98578369     0.20300
C1105       C  0.58965581  0.75691420  0.00315187    -0.13300
C1106       C  0.59019159  0.73937206  0.99866997    -0.11600
C1107       C  0.60292007  0.78480307  0.99423924     0.01200
C1108       C  0.60164814  0.79953541  0.00560850    -0.31600
C1109       C  0.60535942  0.71325107  0.97828099     0.02600
C1110       C  0.60509798  0.69837584  0.98809025    -0.33300
H1111       H  0.62865941  0.73535058  0.94166088     0.13700
H1112       H  0.62767978  0.76632536  0.94921251     0.13500
H1113       H  0.57884764  0.76276768  0.02123602     0.13300
H1114       H  0.57980776  0.73195471  0.01362837     0.12400
C1115       C  0.33465778  0.59652623  0.10318367     0.18700
C1116       C  0.33686453  0.57899267  0.10320069    -0.10400
C1117       C  0.32413871  0.56831457  0.12223085    -0.11300
C1118       C  0.30902814  0.57501217  0.14162875     0.20300
C1119       C  0.30672570  0.59251906  0.14075978    -0.13300
C1120       C  0.31943414  0.60318245  0.12174919    -0.11600
C1121       C  0.29608599  0.56407769  0.16354202     0.01200
C1122       C  0.28510175  0.55537261  0.18266867    -0.31600
C1123       C  0.34819948  0.60772872  0.08658974     0.02600
C1124       C  0.35961185  0.61741754  0.07627928    -0.33300
H1125       H  0.34852504  0.57357549  0.08920941     0.13700
H1126       H  0.32618834  0.55485182  0.12245336     0.13500
H1127       H  0.29517483  0.59796830  0.15545847     0.13300
H1128       H  0.31747233  0.61666116  0.12226034     0.12400
C1129       C  0.38703642  0.76752321  0.01790894     0.18700
C1130       C  0.37505573  0.75840415  0.04613902    -0.10400
C1131       C  0.37549705  0.74076982  0.04668799    -0.11300
C1132       C  0.38792617  0.73205946  0.01903527     0.20300
C1133       C  0.39983558  0.74118081  0.99048547    -0.13300
C1134       C  0.39939197  0.75882356  0.98993127    -0.11600
C1135       C  0.38893977  0.71387630  0.02216305     0.01200
C1136       C  0.39027308  0.69884010  0.02847947    -0.31600
C1137       C  0.38730638  0.78573162  0.02028919     0.02600
C1138       C  0.38847049  0.80079935  0.02622861    -0.33300
H1139       H  0.36554012  0.76492602  0.06839809     0.13700
H1140       H  0.36630041  0.73393835  0.06930410     0.13500
H1141       H  0.40961304  0.73467144  0.96927952     0.13300
H1142       H  0.40884582  0.76567773  0.96836811     0.12400
C1143       C  0.51536371  0.63607142  0.00169387     0.18700
C1144       C  0.50677226  0.62915922  0.96009296    -0.10400
C1145       C  0.48908527  0.62916487  0.95939703    -0.11300
C1146       C  0.47989245  0.63609314  0.00026483     0.20300
C1147       C  0.48852623  0.64275189  0.04203962    -0.13300
C1148       C  0.50612227  0.64274024  0.04273972    -0.11600
C1149       C  0.46166528  0.63669427  0.00015197     0.01200
C1150       C  0.44667833  0.63828999  0.00747528    -0.31600
C1151       C  0.53357711  0.63704877  0.00231000     0.02600
C1152       C  0.54846626  0.63951763  0.00849947    -0.33300
H1153       H  0.51370989  0.62398070  0.92805690     0.13700
H1154       H  0.48261306  0.62393505  0.92684278     0.13500
H1155       H  0.48164212  0.64811176  0.07393713     0.13300
H1156       H  0.51254224  0.64814781  0.07514979     0.12400
C1157       C  0.66906946  0.56319446  0.58318338     0.18700
C1158       C  0.67208589  0.57233811  0.62808692    -0.10400
C1159       C  0.66097817  0.58513614  0.64406753    -0.11300
C1160       C  0.64666845  0.58898399  0.61541282     0.20300
C1161       C  0.64372746  0.57990210  0.57041799    -0.13300
C1162       C  0.65481385  0.56712953  0.55446515    -0.11600
C1163       C  0.63498780  0.60214283  0.63180913     0.01200
C1164       C  0.62483236  0.61303294  0.64304336    -0.31600
C1165       C  0.68036098  0.54969946  0.56666983     0.02600
C1166       C  0.68927893  0.53818598  0.55184383    -0.33300
H1167       H  0.68299899  0.56954087  0.65090146     0.13700
H1168       H  0.66353015  0.59198309  0.67883410     0.13500
H1169       H  0.63279616  0.58265800  0.54762153     0.13300
H1170       H  0.65221801  0.56027189  0.51975232     0.12400
C1171       C  0.56971092  0.65536462  0.40997791     0.18700
C1172       C  0.57047842  0.67133950  0.38776048    -0.10400
C1173       C  0.57092586  0.67285984  0.33484778    -0.11300
C1174       C  0.57058081  0.65838394  0.30441455     0.20300
C1175       C  0.56894265  0.64249071  0.32666831    -0.13300
C1176       C  0.56851477  0.64097189  0.37948112    -0.11600
C1177       C  0.57401755  0.65950708  0.25107056     0.01200
C1178       C  0.57850861  0.65909027  0.20737690    -0.31600
C1179       C  0.57205938  0.65357979  0.46350994     0.02600
C1180       C  0.57544011  0.65200216  0.50760520    -0.33300
H1181       H  0.57150911  0.68252549  0.41126389     0.13700
H1182       H  0.57232366  0.68517552  0.31782495     0.13500
H1183       H  0.56880670  0.63123105  0.30325330     0.13300
H1184       H  0.56802909  0.62858733  0.39646024     0.12400
C1185       C  0.57471590  0.84857735  0.31233519     0.18700
C1186       C  0.58851450  0.84523317  0.34315541    -0.10400
C1187       C  0.58662031  0.84537465  0.39583467    -0.11300
C1188       C  0.57092039  0.84887241  0.41787083     0.20300
C1189       C  0.55700290  0.85205305  0.38717834    -0.13300
C1190       C  0.55890502  0.85189565  0.33420050    -0.11600
C1191       C  0.56967480  0.84969097  0.47208071     0.01200
C1192       C  0.57163151  0.85026016  0.51723160    -0.31600
C1193       C  0.57706060  0.84874431  0.25834801     0.02600
C1194       C  0.58017169  0.84863364  0.21357982    -0.33300
H1195       H  0.60077857  0.84265124  0.32644373     0.13700
H1196       H  0.59742789  0.84294914  0.41941321     0.13500
H1197       H  0.54481350  0.85481010  0.40410782     0.13300
H1198       H  0.54818448  0.85448022  0.31044785     0.12400
C1199       C  0.59872734  0.76764784  0.70490106     0.18700
C1200       C  0.60509725  0.75824150  0.66370977    -0.10400
C1201       C  0.60452404  0.74057599  0.66451434    -0.11300
C1202       C  0.59757011  0.73204393  0.70652274     0.20300
C1203       C  0.59126962  0.74144316  0.74781303    -0.13300
C1204       C  0.59184543  0.75911988  0.74701127    -0.11600
C1205       C  0.59634782  0.71375641  0.70608809     0.01200
C1206       C  0.59480682  0.69860171  0.70168345    -0.31600
C1207       C  0.59867330  0.78596166  0.70308070     0.02600
C1208       C  0.59787365  0.80117740  0.69923738    -0.33300
H1209       H  0.61036234  0.76456663  0.63066890     0.13700
H1210       H  0.60934805  0.73357551  0.63211997     0.13500
H1211       H  0.58574816  0.73511732  0.78046244     0.13300
H1212       H  0.58676788  0.76613141  0.77901400     0.12400
C1213       C  0.31698625  0.56615471  0.57289013     0.18700
C1214       C  0.32202902  0.57923833  0.54031130    -0.10400
C1215       C  0.33264589  0.59210606  0.55794931    -0.11300
C1216       C  0.33834948  0.59206899  0.60837615     0.20300
C1217       C  0.33329225  0.57898230  0.64090592    -0.13300
C1218       C  0.32268013  0.56612100  0.62327591    -0.11600
C1219       C  0.34965409  0.60519445  0.62629676     0.01200
C1220       C  0.35962449  0.61596660  0.63922695    -0.31600
C1221       C  0.30622076  0.55267086  0.55458745     0.02600
C1222       C  0.29755179  0.54109550  0.53975105    -0.33300
H1223       H  0.31782043  0.57945902  0.50127624     0.13700
H1224       H  0.33647113  0.60205586  0.53212689     0.13500
H1225       H  0.33760963  0.57867421  0.67981360     0.13300
H1226       H  0.31897021  0.55609401  0.64896597     0.12400
C1227       C  0.42410522  0.65175326  0.31461424     0.18700
C1228       C  0.42403951  0.63667097  0.34196874    -0.10400
C1229       C  0.42482645  0.63704074  0.39499145    -0.11300
C1230       C  0.42568665  0.65248433  0.42059705     0.20300
C1231       C  0.42659463  0.66751767  0.39310214    -0.13300
C1232       C  0.42581117  0.66714735  0.34006324    -0.11600
C1233       C  0.42327116  0.65299143  0.47462119     0.01200
C1234       C  0.41904269  0.65298836  0.51862343    -0.31600
C1235       C  0.42058066  0.65152274  0.26132235     0.02600
C1236       C  0.41624555  0.65130289  0.21769103    -0.33300
H1237       H  0.42261216  0.62472901  0.32253554     0.13700
H1238       H  0.42393991  0.62536040  0.41607759     0.13500
H1239       H  0.42708312  0.67950817  0.41268703     0.13300
H1240       H  0.42576043  0.67887662  0.31910870     0.12400
C1241       C  0.50976527  0.63130430  0.73748269     0.18700
C1242       C  0.50111712  0.62490350  0.78014463    -0.10400
C1243       C  0.48344084  0.62414532  0.78059813    -0.11300
C1244       C  0.47436051  0.62976582  0.73839644     0.20300
C1245       C  0.48307440  0.63579189  0.69550829    -0.13300
C1246       C  0.50063935  0.63655102  0.69506282    -0.11600
C1247       C  0.45616262  0.63028278  0.73884958     0.01200
C1248       C  0.44132402  0.63256670  0.73184607    -0.31600
C1249       C  0.52790133  0.63308628  0.73656845     0.02600
C1250       C  0.54261588  0.63585439  0.72752777    -0.33300
H1251       H  0.50798066  0.62077946  0.81318960     0.13700
H1252       H  0.47688161  0.61947500  0.81408061     0.13500
H1253       H  0.47626248  0.64019903  0.66266805     0.13300
H1254       H  0.50711790  0.64150279  0.66178431     0.12400
C1255       C  0.41175377  0.84735738  0.42312326     0.18700
C1256       C  0.40717984  0.86211771  0.39797216    -0.10400
C1257       C  0.40797239  0.86284127  0.34499467    -0.11300
C1258       C  0.41335095  0.84880567  0.31707455     0.20300
C1259       C  0.41809975  0.83407036  0.34217389    -0.13300
C1260       C  0.41730803  0.83334645  0.39528047    -0.11600
C1261       C  0.41288407  0.84927067  0.26267728     0.01200
C1262       C  0.41097277  0.84974770  0.21745117    -0.31600
C1263       C  0.41006262  0.84651847  0.47735102     0.02600
C1264       C  0.40766334  0.84652617  0.52255290    -0.33300
H1265       H  0.40276899  0.87296931  0.41928164     0.13700
H1266       H  0.40412272  0.87421485  0.32578821     0.13500
H1267       H  0.42211803  0.82310201  0.32072339     0.13300
H1268       H  0.42076754  0.82184929  0.41451416     0.12400
C1269       C  0.50958232  0.86646476  0.75174062     0.18700
C1270       C  0.50056888  0.85177978  0.76353885    -0.10400
C1271       C  0.48295042  0.85182805  0.76404804    -0.11300
C1272       C  0.47408670  0.86654751  0.75272316     0.20300
C1273       C  0.48306431  0.88142480  0.74259222    -0.13300
C1274       C  0.50074642  0.88137772  0.74209428    -0.11600
C1275       C  0.45599441  0.86574370  0.74654868     0.01200
C1276       C  0.44134493  0.86326235  0.73655221    -0.31600
C1277       C  0.52768021  0.86561964  0.74450188     0.02600
C1278       C  0.54232011  0.86350857  0.73281025    -0.33300
H1279       H  0.50715638  0.84013173  0.77058746     0.13700
H1280       H  0.47623256  0.84019309  0.77150727     0.13500
H1281       H  0.47643386  0.89287424  0.73334479     0.13300
H1282       H  0.50750206  0.89281436  0.73244205     0.12400
C1283       C  0.38615752  0.73089358  0.72557857     0.18700
C1284       C  0.39890653  0.74011842  0.74971101    -0.10400
C1285       C  0.39841793  0.75779615  0.75066821    -0.11300
C1286       C  0.38518430  0.76648042  0.72753580     0.20300
C1287       C  0.37229450  0.75723645  0.70426354    -0.13300
C1288       C  0.37278079  0.73957929  0.70331833    -0.11600
C1289       C  0.38536966  0.78476668  0.72464120     0.01200
C1290       C  0.38622966  0.79987241  0.71805324    -0.31600
C1291       C  0.38733873  0.71269226  0.72049570     0.02600
C1292       C  0.38891006  0.69774132  0.71194618    -0.33300
H1293       H  0.40940183  0.73367501  0.76679031     0.13700
H1294       H  0.40856427  0.76469733  0.76851992     0.13500
H1295       H  0.36205003  0.76368014  0.68588095     0.13300
H1296       H  0.36288151  0.73270420  0.68417036     0.12400
C1297       C  0.51199664  0.14782409  0.00005539     0.18700
C1298       C  0.50279616  0.14322129  0.04381506    -0.10400
C1299       C  0.48509371  0.14324294  0.04337981    -0.11300
C1300       C  0.47647282  0.14784469  0.99915118     0.20300
C1301       C  0.48571728  0.15267094  0.95582973    -0.13300
C1302       C  0.50332498  0.15266327  0.95627603    -0.11600
C1303       C  0.45822406  0.14761749  0.99714199     0.01200
C1304       C  0.44326219  0.14833913  0.98881986    -0.31600
C1305       C  0.53024345  0.14702542  0.99825115     0.02600
C1306       C  0.54516774  0.14644374  0.98827297    -0.33300
H1307       H  0.50927592  0.13942848  0.07799207     0.13700
H1308       H  0.47816773  0.13953716  0.07724188     0.13500
H1309       H  0.47929308  0.15631202  0.92138456     0.13300
H1310       H  0.51019489  0.15623057  0.92214897     0.12400
C1311       C  0.66275486  0.39834159  0.88070243     0.18700
C1312       C  0.67283836  0.40764456  0.91425606    -0.10400
C1313       C  0.68574359  0.41814230  0.89534824    -0.11300
C1314       C  0.68871487  0.41948463  0.84266414     0.20300
C1315       C  0.67872580  0.41006981  0.80927657    -0.13300
C1316       C  0.66585919  0.39960340  0.82812604    -0.11600
C1317       C  0.70169881  0.43068492  0.82255667     0.01200
C1318       C  0.71226485  0.44008986  0.80452875    -0.31600
C1319       C  0.64908198  0.38766595  0.89934742     0.02600
C1320       C  0.63716164  0.37857209  0.90932655    -0.33300
H1321       H  0.67067074  0.40687104  0.95495204     0.13700
H1322       H  0.69331182  0.42530095  0.92180432     0.13500
H1323       H  0.68079468  0.41091106  0.76854393     0.13300
H1324       H  0.65823855  0.39255004  0.80155039     0.12400
C1325       C  0.60354047  0.26559863  0.93227579     0.18700
C1326       C  0.59755963  0.25639265  0.97417623    -0.10400
C1327       C  0.59749184  0.23876386  0.97289530    -0.11300
C1328       C  0.60338945  0.23011974  0.92969149     0.20300
C1329       C  0.60919473  0.23930627  0.88743497    -0.13300
C1330       C  0.60926429  0.25696707  0.88871987    -0.11600
C1331       C  0.60307259  0.21188905  0.92862834     0.01200
C1332       C  0.60186733  0.19669487  0.92775065    -0.31600
C1333       C  0.60359644  0.28384178  0.93383278     0.02600
C1334       C  0.60310137  0.29908143  0.93328147    -0.33300
H1335       H  0.59296138  0.26284345  0.00791694     0.13700
H1336       H  0.59282544  0.23187013  0.00563884     0.13500
H1337       H  0.61365219  0.23283260  0.85354439     0.13300
H1338       H  0.61379272  0.26387991  0.85582255     0.12400
C1339       C  0.31106544  0.42944409  0.83987982     0.18700
C1340       C  0.32813912  0.43399621  0.83982315    -0.10400
C1341       C  0.34013729  0.42356892  0.86273927    -0.11300
C1342       C  0.33523438  0.40843038  0.88617343     0.20300
C1343       C  0.31815704  0.40389507  0.88626614    -0.13300
C1344       C  0.30616269  0.41431932  0.86335997    -0.11600
C1345       C  0.34779984  0.39728752  0.90793064     0.01200
C1346       C  0.35878419  0.38775972  0.92184856    -0.31600
C1347       C  0.29855895  0.44018833  0.81614533     0.02600
C1348       C  0.28754973  0.44870744  0.79740764    -0.33300
H1349       H  0.33221743  0.44561288  0.82187302     0.13700
H1350       H  0.35323478  0.42725155  0.86186227     0.13500
H1351       H  0.31409443  0.39220158  0.90378456     0.13300
H1352       H  0.29308587  0.41055705  0.86381702     0.12400
C1353       C  0.37910191  0.23617925  0.96726178     0.18700
C1354       C  0.38368088  0.24578899  0.92457206    -0.10400
C1355       C  0.38431103  0.26339553  0.92769285    -0.11300
C1356       C  0.38038189  0.27166208  0.97357329     0.20300
C1357       C  0.37562572  0.26208104  0.01618815    -0.13300
C1358       C  0.37499542  0.24443029  0.01305952    -0.11600
C1359       C  0.38165861  0.28988347  0.97657638     0.01200
C1360       C  0.38356394  0.30502043  0.97423579    -0.31600
C1361       C  0.37936837  0.21792203  0.96423212     0.02600
C1362       C  0.38092728  0.20283772  0.95871857    -0.33300
H1363       H  0.38697268  0.23965352  0.88893218     0.13700
H1364       H  0.38803595  0.27055903  0.89442426     0.13500
H1365       H  0.37257451  0.26823074  0.05197346     0.13300
H1366       H  0.37150964  0.23723019  0.04646348     0.12400
C1367       C  0.51373112  0.36378741  0.98079164     0.18700
C1368       C  0.50539074  0.37893143  0.97033641    -0.10400
C1369       C  0.48773784  0.37979832  0.97334579    -0.11300
C1370       C  0.47824972  0.36553283  0.98686961     0.20300
C1371       C  0.48662505  0.35046294  0.99756223    -0.13300
C1372       C  0.50422093  0.34959688  0.99454181    -0.11600
C1373       C  0.45997219  0.36581443  0.98628538     0.01200
C1374       C  0.44488647  0.36437812  0.98100154    -0.31600
C1375       C  0.53188779  0.36241972  0.97506667     0.02600
C1376       C  0.54677356  0.36010526  0.96703628    -0.33300
H1377       H  0.51249936  0.38998289  0.95914905     0.13700
H1378       H  0.48149322  0.39149702  0.96430415     0.13500
H1379       H  0.47952476  0.33926987  0.00740884     0.13300
H1380       H  0.51040244  0.33775680  0.00223539     0.12400
C1381       C  0.32013172  0.43794718  0.39475653     0.18700
C1382       C  0.31521556  0.42098612  0.39567592    -0.10400
C1383       C  0.32574813  0.40848145  0.37514181    -0.11300
C1384       C  0.34136675  0.41272598  0.35326166     0.20300
C1385       C  0.34628010  0.42971183  0.35201134    -0.13300
C1386       C  0.33572281  0.44224535  0.37257711    -0.11600
C1387       C  0.35251356  0.39954823  0.33433242     0.01200
C1388       C  0.36179094  0.38801036  0.32252272    -0.31600
C1389       C  0.30922993  0.45079734  0.41692880     0.02600
C1390       C  0.30006044  0.46143939  0.43556552    -0.33300
H1391       H  0.30326013  0.41739354  0.41261060     0.13700
H1392       H  0.32176100  0.39545479  0.37678240     0.13500
H1393       H  0.35833062  0.43325865  0.33557722     0.13300
H1394       H  0.33977169  0.45525913  0.37148454     0.12400
C1395       C  0.40125325  0.34848164  0.57398431     0.18700
C1396       C  0.38673427  0.34842504  0.60452629    -0.10400
C1397       C  0.38811479  0.34688410  0.65712944    -0.11300
C1398       C  0.40399001  0.34537473  0.67911205     0.20300
C1399       C  0.41852415  0.34545624  0.64863065    -0.13300
C1400       C  0.41714128  0.34699091  0.59595559    -0.11600
C1401       C  0.40523711  0.34455480  0.73317383     0.01200
C1402       C  0.40486810  0.34517353  0.77872200    -0.31600
C1403       C  0.39981044  0.34964413  0.51997870     0.02600
C1404       C  0.39865398  0.34997960  0.47453519    -0.33300
H1405       H  0.37441848  0.34954265  0.58771385     0.13700
H1406       H  0.37682431  0.34696404  0.68069460     0.13500
H1407       H  0.43083236  0.34442923  0.66552588     0.13300
H1408       H  0.42842590  0.34699685  0.57237935     0.12400
C1409       C  0.66912524  0.43412943  0.40083483     0.18700
C1410       C  0.67615649  0.41892441  0.38345169    -0.10400
C1411       C  0.66595437  0.40630329  0.36195263    -0.11300
C1412       C  0.64852128  0.40865212  0.35732062     0.20300
C1413       C  0.64152158  0.42395286  0.37403286    -0.13300
C1414       C  0.65172210  0.43657171  0.39553558    -0.11600
C1415       C  0.63774483  0.39518997  0.33770820     0.01200
C1416       C  0.62826853  0.38388719  0.32478036    -0.31600
C1417       C  0.67968074  0.44706829  0.42442335     0.02600
C1418       C  0.68843563  0.45793890  0.44381089    -0.33300
H1419       H  0.68953263  0.41673749  0.38696457     0.13700
H1420       H  0.67166048  0.39461436  0.34951028     0.13500
H1421       H  0.62811547  0.42606557  0.37103534     0.13300
H1422       H  0.64598253  0.44818554  0.40849696     0.12400
C1423       C  0.57425415  0.36025904  0.66850619     0.18700
C1424       C  0.58488637  0.34885674  0.64353813    -0.10400
C1425       C  0.58528398  0.34821697  0.59068427    -0.11300
C1426       C  0.57504428  0.35897259  0.56275066     0.20300
C1427       C  0.56425237  0.37029529  0.58758494    -0.13300
C1428       C  0.56385610  0.37094218  0.64072033    -0.11600
C1429       C  0.57611688  0.35841822  0.50860354     0.01200
C1430       C  0.57865983  0.35666666  0.46391835    -0.31600
C1431       C  0.57467013  0.36108016  0.72264493     0.02600
C1432       C  0.57735594  0.35994355  0.76722178    -0.33300
H1433       H  0.59299342  0.34059536  0.66495095     0.13700
H1434       H  0.59367810  0.33946035  0.57158065     0.13500
H1435       H  0.55632726  0.37866349  0.56598355     0.13300
H1436       H  0.55564478  0.37981315  0.66000615     0.12400
C1437       C  0.47588542  0.35514064  0.24195354     0.18700
C1438       C  0.48434566  0.34097717  0.22268869    -0.10400
C1439       C  0.50198959  0.34054226  0.22151134    -0.11300
C1440       C  0.51135122  0.35426278  0.23954543     0.20300
C1441       C  0.50288338  0.36855424  0.25786100    -0.13300
C1442       C  0.48524948  0.36898788  0.25904825    -0.11600
C1443       C  0.52949667  0.35318327  0.24335564     0.01200
C1444       C  0.54435145  0.35199117  0.25251168    -0.31600
C1445       C  0.45774544  0.35491733  0.24812720     0.02600
C1446       C  0.44287901  0.35416742  0.25852268    -0.33300
H1447       H  0.47732157  0.33011698  0.20984209     0.13700
H1448       H  0.50832211  0.32932382  0.20774929     0.13500
H1449       H  0.50990085  0.37917684  0.27244602     0.13300
H1450       H  0.47892280  0.37996290  0.27455660     0.12400
C1451       C  0.42055402  0.15957736  0.68257182     0.18700
C1452       C  0.40397116  0.15972953  0.66533886    -0.10400
C1453       C  0.40070593  0.15802479  0.61375759    -0.11300
C1454       C  0.41402047  0.15619437  0.57914622     0.20300
C1455       C  0.43070111  0.15644696  0.59600133    -0.13300
C1456       C  0.43399157  0.15811228  0.64799187    -0.11600
C1457       C  0.41028879  0.15387450  0.52654744     0.01200
C1458       C  0.40617302  0.15229437  0.48302469    -0.31600
C1459       C  0.42305904  0.15976013  0.73626027     0.02600
C1460       C  0.42043746  0.15904729  0.78119220    -0.33300
H1461       H  0.39352656  0.16078974  0.69199605     0.13700
H1462       H  0.38779102  0.15789037  0.60093723     0.13500
H1463       H  0.44105713  0.15509669  0.56919315     0.13300
H1464       H  0.44685675  0.15792339  0.66119698     0.12400
C1465       C  0.37908019  0.26683662  0.27500512     0.18700
C1466       C  0.37512948  0.25756557  0.23111929    -0.10400
C1467       C  0.37438889  0.23989639  0.23278594    -0.11300
C1468       C  0.37759149  0.23135635  0.27837974     0.20300
C1469       C  0.38114558  0.24067450  0.32240355    -0.13300
C1470       C  0.38189060  0.25827543  0.32074107    -0.11600
C1471       C  0.37840852  0.21312227  0.27994562     0.01200
C1472       C  0.38074066  0.19818921  0.28594044    -0.31600
C1473       C  0.38095250  0.28501177  0.27347415     0.02600
C1474       C  0.38351340  0.30001357  0.27741172    -0.33300
H1475       H  0.37293406  0.26396001  0.19542108     0.13700
H1476       H  0.37168982  0.23291446  0.19839028     0.13500
H1477       H  0.38372236  0.23430165  0.35791544     0.13300
H1478       H  0.38497243  0.26519756  0.35495355     0.12400
C1479       C  0.57680146  0.12795403  0.67361106     0.18700
C1480       C  0.58695593  0.11873327  0.63987973    -0.10400
C1481       C  0.58523727  0.12094128  0.58746905    -0.11300
C1482       C  0.57340918  0.13240553  0.56904751     0.20300
C1483       C  0.56282189  0.14106895  0.60278505    -0.13300
C1484       C  0.56451479  0.13884409  0.65505242    -0.11600
C1485       C  0.57333972  0.13656412  0.51613802     0.01200
C1486       C  0.57485225  0.14044523  0.47222212    -0.31600
C1487       C  0.58009919  0.12793334  0.72695918     0.02600
C1488       C  0.58278393  0.13052032  0.77112471    -0.33300
H1489       H  0.59661326  0.11039985  0.65405126     0.13700
H1490       H  0.59354637  0.11428355  0.56150986     0.13500
H1491       H  0.55373399  0.15004658  0.58878053     0.13300
H1492       H  0.55674867  0.14612912  0.68098604     0.12400
C1493       C  0.47424173  0.13802502  0.25438249     0.18700
C1494       C  0.48234784  0.12371902  0.23454894    -0.10400
C1495       C  0.50001392  0.12301196  0.23236198    -0.11300
C1496       C  0.50966834  0.13660509  0.25002820     0.20300
C1497       C  0.50151344  0.15088107  0.26954346    -0.13300
C1498       C  0.48393894  0.15158309  0.27172939    -0.11600
C1499       C  0.52787620  0.13587988  0.25098362     0.01200
C1500       C  0.54288720  0.13683419  0.25795114    -0.31600
C1501       C  0.45608305  0.13878281  0.25940219     0.02600
C1502       C  0.44128206  0.14067242  0.26923992    -0.33300
H1503       H  0.47504487  0.11306940  0.22137492     0.13700
H1504       H  0.50611402  0.11182695  0.21756914     0.13500
H1505       H  0.50876567  0.16142229  0.28376064     0.13300
H1506       H  0.47790246  0.16265393  0.28755954     0.12400
C1507       C  0.60194959  0.26439008  0.26670424     0.18700
C1508       C  0.58803654  0.25565969  0.24722869    -0.10400
C1509       C  0.58771339  0.23798091  0.24695190    -0.11300
C1510       C  0.60129780  0.22879267  0.26616341     0.20300
C1511       C  0.61536085  0.23752459  0.28454304    -0.13300
C1512       C  0.61568274  0.25519456  0.28482844    -0.11600
C1513       C  0.60031157  0.21056693  0.27054808     0.01200
C1514       C  0.59882979  0.19557836  0.27845370    -0.31600
C1515       C  0.60170789  0.28265474  0.27089493     0.02600
C1516       C  0.60079569  0.29775988  0.27764864    -0.33300
H1517       H  0.57727340  0.26251244  0.23329523     0.13700
H1518       H  0.57669257  0.23149102  0.23288020     0.13500
H1519       H  0.62592195  0.23067940  0.29981703     0.13300
H1520       H  0.62650029  0.26168069  0.30024980     0.12400
C1521       C  0.83564078  0.90272968  0.35567543     0.18700
C1522       C  0.83744168  0.91123133  0.30911118    -0.10400
C1523       C  0.82474658  0.92204477  0.29199835    -0.11300
C1524       C  0.81005951  0.92451953  0.32118123     0.20300
C1525       C  0.80825922  0.91602118  0.36773500    -0.13300
C1526       C  0.82095459  0.90520613  0.38485028    -0.11600
C1527       C  0.79675118  0.93549979  0.30316522     0.01200
C1528       C  0.78526175  0.94423472  0.28841092    -0.31600
C1529       C  0.84878591  0.89143265  0.37304626     0.02600
C1530       C  0.86007254  0.88199060  0.38510012    -0.33300
H1531       H  0.84864621  0.90947470  0.28595480     0.13700
H1532       H  0.82637540  0.92843436  0.25588126     0.13500
H1533       H  0.79701252  0.91770881  0.39075460     0.13300
H1534       H  0.81928602  0.89874675  0.42082354     0.12400
C1535       C  0.65400530  0.90186975  0.11215629     0.18700
C1536       C  0.65523767  0.91877994  0.09724008    -0.10400
C1537       C  0.66761734  0.92934142  0.11811573    -0.11300
C1538       C  0.67891828  0.92315607  0.15426938     0.20300
C1539       C  0.67762421  0.90626040  0.16929605    -0.13300
C1540       C  0.66525824  0.89570989  0.14843744    -0.11600
C1541       C  0.69194746  0.93401623  0.17527960     0.01200
C1542       C  0.70313158  0.94287045  0.19198928    -0.31600
C1543       C  0.64111316  0.89086446  0.09124317     0.02600
C1544       C  0.63028607  0.88113577  0.07712598    -0.33300
H1545       H  0.64663414  0.92381478  0.06946845     0.13700
H1546       H  0.66839559  0.94232497  0.10595761     0.13500
H1547       H  0.68620938  0.90121128  0.19709589     0.13300
H1548       H  0.66447697  0.88272777  0.16064156     0.12400
C1549       C  0.64811908  0.08851774  0.36634701     0.18700
C1550       C  0.64392884  0.07140528  0.36188980    -0.10400
C1551       C  0.65451158  0.05892364  0.38174459    -0.11300
C1552       C  0.66948215  0.06331551  0.40654864     0.20300
C1553       C  0.67364042  0.08044497  0.41124151    -0.13300
C1554       C  0.66304695  0.09293830  0.39137115    -0.11600
C1555       C  0.68047252  0.05025689  0.42687469     0.01200
C1556       C  0.68932515  0.03900338  0.44313884    -0.31600
C1557       C  0.63692112  0.10146827  0.34660922     0.02600
C1558       C  0.62710368  0.11229550  0.33313469    -0.33300
H1559       H  0.63242298  0.06767818  0.34309694     0.13700
H1560       H  0.65100159  0.04582931  0.37773779     0.13500
H1561       H  0.68509604  0.08417200  0.43031440     0.13300
H1562       H  0.66648973  0.10604149  0.39563137     0.12400
C1563       C  0.64965987  0.90846029  0.63157582     0.18700
C1564       C  0.66283636  0.90404288  0.59808632    -0.10400
C1565       C  0.67382719  0.91639498  0.57851503    -0.11300
C1566       C  0.67181675  0.93338766  0.59207857     0.20300
C1567       C  0.65888112  0.93774716  0.62648428    -0.13300
C1568       C  0.64788854  0.92539765  0.64604075    -0.11600
C1569       C  0.68256639  0.94638574  0.56956624     0.01200
C1570       C  0.69099962  0.95761326  0.55063757    -0.31600
C1571       C  0.63747102  0.89582704  0.64857132     0.02600
C1572       C  0.62685302  0.88526789  0.65901783    -0.33300
H1573       H  0.66443000  0.89106606  0.58627447     0.13700
H1574       H  0.68370959  0.91271800  0.55211079     0.13500
H1575       H  0.65709170  0.95076903  0.63755585     0.13300
H1576       H  0.63781003  0.92912156  0.67168825     0.12400
C1577       C  0.83426138  0.09723073  0.61466728     0.18700
C1578       C  0.83812745  0.08493618  0.65106927    -0.10400
C1579       C  0.82553013  0.07417354  0.67050645    -0.11300
C1580       C  0.80883838  0.07550273  0.65398746     0.20300
C1581       C  0.80496673  0.08781420  0.61764910    -0.13300
C1582       C  0.81756485  0.09857832  0.59821013    -0.11600
C1583       C  0.79573489  0.06432876  0.67418544     0.01200
C1584       C  0.78464604  0.05514263  0.69068246    -0.31600
C1585       C  0.84730678  0.10862997  0.59530868     0.02600
C1586       C  0.85832448  0.11841027  0.58183529    -0.33300
H1587       H  0.85086289  0.08369794  0.66455152     0.13700
H1588       H  0.82884031  0.06479396  0.69859566     0.13500
H1589       H  0.79221154  0.08911391  0.60438080     0.13300
H1590       H  0.81423803  0.10801930  0.57033994     0.12400
C1591       C  0.65370090  0.09126929  0.87996122     0.18700
C1592       C  0.66681979  0.08507414  0.90981414    -0.10400
C1593       C  0.67951147  0.07502683  0.88793145    -0.11300
C1594       C  0.67928266  0.07101727  0.83582384     0.20300
C1595       C  0.66607112  0.07708902  0.80600720    -0.13300
C1596       C  0.65337049  0.08713950  0.82790448    -0.11600
C1597       C  0.69269971  0.06089184  0.81321924     0.01200
C1598       C  0.70422699  0.05258178  0.79566965    -0.31600
C1599       C  0.64092866  0.10229603  0.90199023     0.02600
C1600       C  0.63018230  0.11213502  0.91634210    -0.33300
H1601       H  0.66734493  0.08814384  0.95002468     0.13700
H1602       H  0.68957214  0.07048820  0.91159340     0.13500
H1603       H  0.66563938  0.07415795  0.76567723     0.13300
H1604       H  0.64339304  0.09182161  0.80415041     0.12400
C1605       C  0.84440110  0.08574441  0.12794989     0.18700
C1606       C  0.84762280  0.06849567  0.13441368    -0.10400
C1607       C  0.83635255  0.05624131  0.11589914    -0.11300
C1608       C  0.82162424  0.06095528  0.09043966     0.20300
C1609       C  0.81829363  0.07820458  0.08455869    -0.13300
C1610       C  0.82956383  0.09045773  0.10307321    -0.11600
C1611       C  0.81023453  0.04818174  0.06937666     0.01200
C1612       C  0.80111298  0.03735542  0.05114946    -0.31600
C1613       C  0.85652449  0.09850005  0.14504173     0.02600
C1614       C  0.86691991  0.10920944  0.15644818    -0.33300
H1615       H  0.85895935  0.06448996  0.15328358     0.13700
H1616       H  0.83925154  0.04304182  0.12098925     0.13500
H1617       H  0.80706464  0.08220580  0.06513005     0.13300
H1618       H  0.82676825  0.10365607  0.09741540     0.12400
C1619       C  0.82231663  0.93571759  0.89368210     0.18700
C1620       C  0.83895922  0.93435950  0.91073044    -0.10400
C1621       C  0.84983653  0.92208727  0.89018051    -0.11300
C1622       C  0.84430710  0.91096046  0.85216389     0.20300
C1623       C  0.82774971  0.91247807  0.83455290    -0.13300
C1624       C  0.81686624  0.92475825  0.85510927    -0.11600
C1625       C  0.85534050  0.89759637  0.83312867     0.01200
C1626       C  0.86468402  0.88607404  0.82110020    -0.31600
C1627       C  0.81089145  0.94819765  0.91604157     0.02600
C1628       C  0.80161900  0.95880073  0.93481197    -0.33300
H1629       H  0.84348129  0.94266812  0.94025243     0.13700
H1630       H  0.86255284  0.92114684  0.90452031     0.13500
H1631       H  0.82318071  0.90404382  0.80542502     0.13300
H1632       H  0.80409660  0.92558139  0.84117702     0.12400
C1633       C  0.33689797  0.08962391  0.37109289     0.18700
C1634       C  0.32690666  0.08034075  0.33727761    -0.10400
C1635       C  0.31628080  0.06748737  0.35556160    -0.11300
C1636       C  0.31552690  0.06378528  0.40780247     0.20300
C1637       C  0.32548253  0.07312024  0.44148237    -0.13300
C1638       C  0.33607975  0.08593663  0.42325157    -0.11600
C1639       C  0.30488587  0.05026250  0.42703304     0.01200
C1640       C  0.29654421  0.03874821  0.44428225    -0.31600
C1641       C  0.34809223  0.10284025  0.35291752     0.02600
C1642       C  0.35792312  0.11400687  0.34203072    -0.33300
H1643       H  0.32737074  0.08298465  0.29691591     0.13700
H1644       H  0.30871305  0.06038323  0.32889081     0.13500
H1645       H  0.32511863  0.07043828  0.48183531     0.13300
H1646       H  0.34370952  0.09295543  0.44995685     0.12400
C1647       C  0.33652978  0.90852988  0.64501964     0.18700
C1648       C  0.34355107  0.92424642  0.63271122    -0.10400
C1649       C  0.33354706  0.93703319  0.61217912    -0.11300
C1650       C  0.31636088  0.93429931  0.60353622     0.20300
C1651       C  0.30923282  0.91872190  0.61696281    -0.13300
C1652       C  0.31925294  0.90591371  0.63749837    -0.11600
C1653       C  0.30622869  0.94727585  0.57972428     0.01200
C1654       C  0.29801236  0.95822625  0.55952190    -0.31600
C1655       C  0.34732471  0.89488970  0.66186792     0.02600
C1656       C  0.35735519  0.88380576  0.67105291    -0.33300
H1657       H  0.35685945  0.92651083  0.63798887     0.13700
H1658       H  0.33929814  0.94896358  0.60220867     0.13500
H1659       H  0.29599158  0.91636451  0.61072277     0.13300
H1660       H  0.31358568  0.89386345  0.64651835     0.12400
C1661       C  0.33591511  0.09710813  0.87795587     0.18700
C1662       C  0.33254640  0.09535053  0.82581256    -0.10400
C1663       C  0.32016906  0.08404454  0.80873938    -0.11300
C1664       C  0.31087660  0.07422217  0.84341669     0.20300
C1665       C  0.31429407  0.07586365  0.89566123    -0.13300
C1666       C  0.32671114  0.08720398  0.91278984    -0.11600
C1667       C  0.29774966  0.06279733  0.82509915     0.01200
C1668       C  0.28665756  0.05375196  0.80831677    -0.31600
C1669       C  0.34868811  0.10914090  0.89502436     0.02600
C1670       C  0.35951676  0.11948239  0.90547840    -0.33300
H1671       H  0.33946107  0.10281315  0.79816642     0.13700
H1672       H  0.31778556  0.08303933  0.76834253     0.13500
H1673       H  0.30729952  0.06844331  0.92324719     0.13300
H1674       H  0.32906379  0.08829468  0.95318320     0.12400
C1675       C  0.15769253  0.09488756  0.62582524     0.18700
C1676       C  0.17384040  0.09461379  0.60358615    -0.10400
C1677       C  0.18633292  0.08387680  0.62257201    -0.11300
C1678       C  0.18288665  0.07326115  0.66410074     0.20300
C1679       C  0.16668169  0.07339946  0.68590409    -0.13300
C1680       C  0.15420045  0.08412451  0.66693149    -0.11600
C1681       C  0.19597853  0.06250117  0.68487586     0.01200
C1682       C  0.20705279  0.05373723  0.70230847    -0.31600
C1683       C  0.14489430  0.10652800  0.60789664     0.02600
C1684       C  0.13397101  0.11646140  0.59618853    -0.33300
H1685       H  0.17683405  0.10281737  0.57195074     0.13700
H1686       H  0.19875081  0.08398186  0.60510667     0.13500
H1687       H  0.16372995  0.06533374  0.71789605     0.13300
H1688       H  0.14183886  0.08414381  0.68477166     0.12400
C1689       C  0.32947081  0.89770896  0.11027974     0.18700
C1690       C  0.31352797  0.89053987  0.11903035    -0.10400
C1691       C  0.30036755  0.90027023  0.13978145    -0.11300
C1692       C  0.30301780  0.91727875  0.15211838     0.20300
C1693       C  0.31888012  0.92445649  0.14268031    -0.13300
C1694       C  0.33200517  0.91475194  0.12198565    -0.11600
C1695       C  0.28973364  0.92739775  0.17522476     0.01200
C1696       C  0.27922242  0.93650782  0.19473232    -0.31600
C1697       C  0.34343803  0.88750690  0.09172857     0.02600
C1698       C  0.35551101  0.87896554  0.07974247    -0.33300
H1699       H  0.31132938  0.87738170  0.11045626     0.13700
H1700       H  0.28821093  0.89448373  0.14671966     0.13500
H1701       H  0.32117467  0.93754826  0.15188642     0.13300
H1702       H  0.34421444  0.92050565  0.11575065     0.12400
C1703       C  0.17854516  0.92229154  0.34724503     0.18700
C1704       C  0.17849885  0.91797153  0.39909829    -0.10400
C1705       C  0.16597974  0.90727844  0.41922577    -0.11300
C1706       C  0.15334809  0.90077706  0.38774386     0.20300
C1707       C  0.15338131  0.90516026  0.33600904    -0.13300
C1708       C  0.16587375  0.91582705  0.31592395    -0.11600
C1709       C  0.14048597  0.88940844  0.40756204     0.01200
C1710       C  0.12938877  0.87953412  0.41901597    -0.31600
C1711       C  0.19168620  0.93306553  0.32597742     0.02600
C1712       C  0.20290438  0.94172152  0.30810068    -0.33300
H1713       H  0.18818278  0.92279079  0.42390011     0.13700
H1714       H  0.16621394  0.90402293  0.45924861     0.13500
H1715       H  0.14377952  0.90025005  0.31105979     0.13300
H1716       H  0.16568933  0.91896026  0.27581046     0.12400
C1717       C  0.17582472  0.06210318  0.09955912     0.18700
C1718       C  0.16382874  0.05856824  0.13777941    -0.10400
C1719       C  0.15331511  0.07135056  0.15724958    -0.11300
C1720       C  0.15463465  0.08789807  0.13885506     0.20300
C1721       C  0.16676887  0.09144110  0.10106992    -0.13300
C1722       C  0.17726912  0.07867374  0.08162480    -0.11600
C1723       C  0.14322559  0.10107481  0.15713628     0.01200
C1724       C  0.13344343  0.11225282  0.16908012    -0.31600
C1725       C  0.18633613  0.04876954  0.07788918     0.02600
C1726       C  0.19480502  0.03754113  0.05915940    -0.33300
H1727       H  0.16246317  0.04586508  0.15222572     0.13700
H1728       H  0.14404231  0.06828272  0.18621428     0.13500
H1729       H  0.16800544  0.10408893  0.08612364     0.13300
H1730       H  0.18639603  0.08170359  0.05219744     0.12400
C1731       C  0.17682250  0.93253510  0.90113677     0.18700
C1732       C  0.18235113  0.91705037  0.88137921    -0.10400
C1733       C  0.17104153  0.90623553  0.85658394    -0.11300
C1734       C  0.15409896  0.91080414  0.85114827     0.20300
C1735       C  0.14862235  0.92630589  0.87074506    -0.13300
C1736       C  0.15990410  0.93709406  0.89550091    -0.11600
C1737       C  0.14214656  0.89930296  0.82800574     0.01200
C1738       C  0.13176910  0.88927521  0.81297380    -0.31600
C1739       C  0.18834908  0.94393908  0.92660496     0.02600
C1740       C  0.19695930  0.95459303  0.94699381    -0.33300
H1741       H  0.19536538  0.91331282  0.88526223     0.13700
H1742       H  0.17547935  0.89425856  0.84204506     0.13500
H1743       H  0.13557919  0.93000409  0.86728797     0.13300
H1744       H  0.15540547  0.94899773  0.91040928     0.12400
loop_ 
_geom_bond_atom_site_label_1 
_geom_bond_atom_site_label_2 
_geom_bond_distance 
_geom_bond_site_symmetry_2 
_ccdc_geom_bond_type 
In1           O3   2.324   1_564  S
In1           O4   2.393   1_554  S
In1          O12   2.277   1_565  S
In1           O6   2.259   1_565  S
In1           O8   2.249   1_554  S
In1           O9   2.390       .  S
In1          O10   2.279   1_554  S
In1          O13   2.315       .  S
C2            O8   1.260       .  A
C2           O10   1.265       .  A
C2         C1740   1.450       .  S
O3           C11   1.262       .  A
O4           C11   1.275   1_565  A
C5           O12   1.266       .  A
C5            O6   1.262       .  A
C5         C1726   1.457       .  S
C7            O9   1.276       .  A
C7           O13   1.261       .  A
C7           C24   1.543       .  S
C11          C37   1.546       .  S
In14         O16   2.334       .  S
In14         O17   2.391       .  S
In14         O25   2.276       .  S
In14         O19   2.262       .  S
In14         O21   2.265       .  S
In14         O22   2.398       .  S
In14         O23   2.267       .  S
In14         O26   2.339       .  S
C15          O21   1.262       .  A
C15          O23   1.264       .  A
C15        C1696   1.451       .  S
O16          C24   1.262       .  A
O17          C24   1.268       .  A
C18          O25   1.264       .  A
C18          O19   1.261       .  A
C18        C1712   1.453       .  S
C20          O22   1.270       .  A
C20          O26   1.261       .  A
C20          C50   1.547       .  S
In27         O29   2.337       .  S
In27         O30   2.394       .  S
In27         O38   2.276       .  S
In27         O32   2.268       .  S
In27         O34   2.273       .  S
In27         O35   2.399       .  S
In27         O36   2.287       .  S
In27         O39   2.333       .  S
C28          O34   1.262       .  A
C28          O36   1.265       .  A
C28        C1668   1.462       .  S
O29          C37   1.262       .  A
O30          C37   1.270       .  A
C31          O38   1.264       .  A
C31          O32   1.262       .  A
C31        C1682   1.456       .  S
C33          O35   1.272       .  A
C33          O39   1.261       .  A
C33          C46   1.546       .  S
In40         O42   2.331       .  S
In40         O43   2.395       .  S
In40         O51   2.268       .  S
In40         O45   2.262       .  S
In40         O47   2.255   1_565  S
In40         O48   2.328   1_565  S
In40         O49   2.268   1_565  S
In40         O52   2.394       .  S
C41          O47   1.263       .  A
C41          O49   1.265       .  A
C41        C1640   1.451       .  S
O42          C50   1.262       .  A
O43          C50   1.274       .  A
C44          O51   1.264       .  A
C44          O45   1.263       .  A
C44        C1654   1.453       .  S
C46          O48   1.261       .  A
C46          O52   1.274   1_545  A
In53         O55   2.409       .  S
In53         O56   2.340   1_565  S
In53         O64   2.288       .  S
In53         O58   2.269       .  S
In53         O60   2.278   1_566  S
In53         O61   2.400   1_566  S
In53         O62   2.296   1_566  S
In53         O65   2.343   1_556  S
C54          O60   1.261       .  A
C54          O62   1.265       .  A
C54        C1612   1.465       .  S
O55          C63   1.273   1_565  A
O56          C63   1.261       .  A
C57          O64   1.265       .  A
C57          O58   1.261       .  A
C57        C1628   1.460       .  S
C59          O61   1.270   1_565  A
C59          O65   1.262       .  A
C59         C102   1.550       .  S
C63          C76   1.553       .  S
In66         O68   2.408       .  S
In66         O69   2.346       .  S
In66         O77   2.275       .  S
In66         O71   2.267       .  S
In66         O73   2.270       .  S
In66         O74   2.334       .  S
In66         O75   2.281       .  S
In66         O78   2.408       .  S
C67          O73   1.262       .  A
C67          O75   1.265       .  A
C67        C1584   1.459       .  S
O68          C76   1.271       .  A
O69          C76   1.261       .  A
C70          O77   1.264       .  A
C70          O71   1.262       .  A
C70        C1598   1.454       .  S
C72          O74   1.260       .  A
C72          O78   1.274       .  A
C72          C89   1.551       .  S
In79         O81   2.336   1_565  S
In79         O82   2.404       .  S
In79         O90   2.280       .  S
In79         O84   2.269       .  S
In79         O86   2.273   1_565  S
In79         O87   2.403       .  S
In79         O88   2.284   1_565  S
In79         O91   2.338       .  S
C80          O86   1.262       .  A
C80          O88   1.265       .  A
C80        C1556   1.461       .  S
O81          C89   1.262       .  A
O82          C89   1.273   1_565  A
C83          O90   1.264       .  A
C83          O84   1.262       .  A
C83        C1570   1.457       .  S
C85          O87   1.273       .  A
C85          O91   1.262       .  A
C85          C98   1.551       .  S
In92         O94   2.333       .  S
In92         O95   2.402       .  S
In92        O103   2.278       .  S
In92         O97   2.264       .  S
In92         O99   2.260       .  S
In92        O100   2.402       .  S
In92        O101   2.277       .  S
In92        O104   2.339       .  S
C93          O99   1.261       .  A
C93         O101   1.264       .  A
C93        C1528   1.453       .  S
O94         C102   1.261       .  A
O95         C102   1.275       .  A
C96         O103   1.265       .  A
C96          O97   1.261       .  A
C96        C1542   1.455       .  S
C98         O100   1.273       .  A
C98         O104   1.261       .  A
In105       O107   2.296       .  S
In105       O108   2.260       .  S
In105       O116   2.268       .  S
In105       O110   2.261       .  S
In105       O112   2.246       .  S
In105       O113   2.282       .  S
In105       O114   2.244       .  S
In105       O117   2.245       .  S
C106        O112   1.253       .  A
C106        O114   1.256       .  A
C106       C1486   1.425       .  S
O107        C115   1.263       .  A
O108        C115   1.255       .  A
C109        O116   1.261       .  A
C109        O110   1.258       .  A
C109       C1500   1.444       .  S
C111        O113   1.267       .  A
C111        O117   1.260       .  A
C111       C1514   1.451       .  S
C115       C1558   1.457       .  S
In118       O120   2.292       .  S
In118       O121   2.244       .  S
In118       O129   2.244       .  S
In118       O123   2.292       .  S
In118       O125   2.228       .  S
In118       O126   2.262       .  S
In118       O127   2.236       .  S
In118       O130   2.277       .  S
C119        O125   1.259       .  A
C119        O127   1.260       .  A
C119       C1458   1.423       .  S
O120        C128   1.262       .  A
O121        C128   1.254       .  A
C122        O129   1.252       .  A
C122        O123   1.262       .  A
C122       C1502   1.444       .  S
C124        O126   1.257       .  A
C124        O130   1.261       .  A
C124       C1642   1.449       .  S
C128       C1472   1.447       .  S
In131       O133   2.250       .  S
In131       O134   2.288       .  S
In131       O142   2.283       .  S
In131       O136   2.235       .  S
In131       O138   2.225       .  S
In131       O139   2.279       .  S
In131       O140   2.230       .  S
In131       O143   2.288       .  S
C132        O138   1.260       .  A
C132        O140   1.258       .  A
C132       C1430   1.420       .  S
O133        C141   1.256       .  A
O134        C141   1.265       .  A
C135        O142   1.266       .  A
C135        O136   1.256       .  A
C135       C1444   1.444       .  S
C137        O139   1.259       .  A
C137        O143   1.261       .  A
C137       C1416   1.460       .  S
C141       C1516   1.451       .  S
In144       O146   2.267       .  S
In144       O147   2.279       .  S
In144       O155   2.236       .  S
In144       O149   2.279       .  S
In144       O151   2.236       .  S
In144       O152   2.242       .  S
In144       O153   2.232       .  S
In144       O156   2.287       .  S
C145        O151   1.258       .  A
C145        O153   1.258       .  A
C145       C1404   1.423       .  S
O146        C154   1.258       .  A
O147        C154   1.260       .  A
C148        O155   1.257       .  A
C148        O149   1.265       .  A
C148       C1446   1.444       .  S
C150        O152   1.256       .  A
C150        O156   1.265       .  A
C150       C1474   1.448       .  S
C154       C1388   1.452       .  S
In157       O159   2.255       .  S
In157       O160   2.305       .  S
In157       O168   2.276       .  S
In157       O162   2.251       .  S
In157       O164   2.242       .  S
In157       O165   2.300       .  S
In157       O166   2.227       .  S
In157       O169   2.237       .  S
C158        O164   1.257       .  A
C158        O166   1.257       .  A
C158       C1402   1.421       .  S
O159        C167   1.253       .  A
O160        C167   1.263       .  A
C161        O168   1.264       .  A
C161        O162   1.260       .  A
C161       C1360   1.448       .  S
C163        O165   1.265       .  A
C163        O169   1.253       .  A
C163       C1374   1.448       .  S
C167       C1346   1.454       .  S
In170       O172   2.246       .  S
In170       O173   2.288       .  S
In170       O181   2.282       .  S
In170       O175   2.243       .  S
In170       O177   2.213       .  S
In170       O178   2.303       .  S
In170       O179   2.236       .  S
In170       O182   2.251       .  S
C171        O177   1.258       .  A
C171        O179   1.260       .  A
C171       C1432   1.419       .  S
O172        C180   1.256       .  A
O173        C180   1.264       .  A
C174        O181   1.264       .  A
C174        O175   1.255       .  A
C174       C1334   1.445       .  S
C176        O178   1.265       .  A
C176        O182   1.254       .  A
C176       C1320   1.454       .  S
C180       C1376   1.449       .  S
In183       O185   2.288       .  S
In183       O186   2.245       .  S
In183       O194   2.275       .  S
In183       O188   2.253       .  S
In183       O190   2.243       .  S
In183       O191   2.272       .  S
In183       O192   2.225       .  S
In183       O195   2.308       .  S
C184        O190   1.259       .  A
C184        O192   1.258       .  A
C184       C1460   1.423       .  S
O185        C193   1.264       .  A
O186        C193   1.255       .  A
C187        O194   1.263       .  A
C187        O188   1.258       .  A
C187       C1362   1.448       .  S
C189        O191   1.255       .  A
C189        O195   1.264       .  A
C189       C1670   1.462       .  S
C193       C1304   1.447       .  S
In196       O198   2.260       .  S
In196       O199   2.279       .  S
In196       O207   2.271       .  S
In196       O201   2.238       .  S
In196       O203   2.225       .  S
In196       O204   2.293       .  S
In196       O205   2.235       .  S
In196       O208   2.234       .  S
C197        O203   1.259       .  A
C197        O205   1.259       .  A
C197       C1488   1.424       .  S
O198        C206   1.258       .  A
O199        C206   1.261       .  A
C200        O207   1.266       .  A
C200        O201   1.258       .  A
C200       C1332   1.444       .  S
C202        O204   1.266       .  A
C202        O208   1.255       .  A
C202       C1306   1.447       .  S
C206       C1600   1.451       .  S
In209       O211   2.294       .  S
In209       O212   2.252       .  S
In209       O220   2.287       .  S
In209       O214   2.252       .  S
In209       O216   2.238       .  S
In209       O217   2.255       .  S
In209       O218   2.232       .  S
In209       O221   2.305       .  S
C210        O216   1.261       .  A
C210        O218   1.261       .  A
C210       C1264   1.427       .  S
O211        C219   1.264       .  A
O212        C219   1.254       .  A
C213        O220   1.260       .  A
C213        O214   1.255       .  A
C213       C1276   1.445       .  S
C215        O217   1.253       .  A
C215        O221   1.263       .  A
C215       C1656   1.452       .  S
C219       C1290   1.451       .  S
In222       O224   2.260       .  S
In222       O225   2.289       .  S
In222       O233   2.257       .  S
In222       O227   2.265       .  S
In222       O229   2.241       .  S
In222       O230   2.290       .  S
In222       O231   2.241       .  S
In222       O234   2.248       .  S
C223        O229   1.256       .  A
C223        O231   1.259       .  A
C223       C1234   1.426       .  S
O224        C232   1.255       .  A
O225        C232   1.262       .  A
C226        O233   1.258       .  A
C226        O227   1.259       .  A
C226       C1248   1.441       .  S
C228        O230   1.265       .  A
C228        O234   1.257       .  A
C228       C1292   1.451       .  S
C232       C1220   1.451       .  S
In235       O237   2.294       .  S
In235       O238   2.277       .  S
In235       O246   2.289       .  S
In235       O240   2.245       .  S
In235       O242   2.236       .  S
In235       O243   2.264       .  S
In235       O244   2.239       .  S
In235       O247   2.287       .  S
C236        O242   1.258       .  A
C236        O244   1.260       .  A
C236       C1192   1.423       .  S
O237        C245   1.260       .  A
O238        C245   1.256       .  A
C239        O246   1.265       .  A
C239        O240   1.255       .  A
C239       C1278   1.446       .  S
C241        O243   1.256       .  A
C241        O247   1.261       .  A
C241       C1208   1.452       .  S
C245       C1572   1.457       .  S
In248       O250   2.298       .  S
In248       O251   2.250       .  S
In248       O259   2.288       .  S
In248       O253   2.229       .  S
In248       O255   2.234       .  S
In248       O256   2.291       .  S
In248       O257   2.233       .  S
In248       O260   2.280       .  S
C249        O255   1.258       .  A
C249        O257   1.259       .  A
C249       C1180   1.424       .  S
O250        C258   1.264       .  A
O251        C258   1.254       .  A
C252        O259   1.266       .  A
C252        O253   1.255       .  A
C252       C1250   1.443       .  S
C254        O256   1.259       .  A
C254        O260   1.256       .  A
C254       C1164   1.457       .  S
C258       C1206   1.451       .  S
In261       O263   2.272       .  S
In261       O264   2.289       .  S
In261       O272   2.282       .  S
In261       O266   2.249       .  S
In261       O268   2.237       .  S
In261       O269   2.294       .  S
In261       O270   2.238       .  S
In261       O273   2.247       .  S
C262        O268   1.260       .  A
C262        O270   1.261       .  A
C262       C1236   1.426       .  S
O263        C271   1.257       .  A
O264        C271   1.260       .  A
C265        O272   1.263       .  A
C265        O266   1.256       .  A
C265       C1136   1.446       .  S
C267        O269   1.262       .  A
C267        O273   1.252       .  A
C267       C1150   1.444       .  S
C271       C1124   1.454       .  S
In274       O276   2.235       .  S
In274       O277   2.238       .  S
In274       O285   2.284       .  S
In274       O279   2.276       .  S
In274       O281   2.240       .  S
In274       O282   2.285   1_554  S
In274       O283   2.288       .  S
In274       O286   2.236       .  S
C275        O281   1.255       .  A
C275        O283   1.265       .  A
C275       C1152   1.445       .  S
O276        C284   1.259       .  A
O277        C284   1.258       .  A
C278        O285   1.260       .  A
C278        O279   1.258       .  A
C278       C1094   1.456       .  S
C280        O282   1.263   1_554  A
C280        O286   1.255       .  A
C280       C1110   1.443   1_554  S
C284       C1178   1.424       .  S
In287       O289   2.252       .  S
In287       O290   2.291   1_554  S
In287       O298   2.279       .  S
In287       O292   2.237       .  S
In287       O294   2.229       .  S
In287       O295   2.287       .  S
In287       O296   2.238       .  S
In287       O299   2.260       .  S
C288        O294   1.259       .  A
C288        O296   1.261       .  A
C288       C1262   1.425       .  S
O289        C297   1.252       .  A
O290        C297   1.260   1_556  A
C291        O298   1.264       .  A
C291        O292   1.256       .  A
C291       C1138   1.443       .  S
C293        O295   1.262       .  A
C293        O299   1.256       .  A
C293       C1698   1.451       .  S
C297       C1080   1.444   1_554  S
In300       O302   2.279       .  S
In300       O303   2.269       .  S
In300       O311   2.243       .  S
In300       O305   2.278   1_554  S
In300       O307   2.234       .  S
In300       O308   2.237       .  S
In300       O309   2.233       .  S
In300       O312   2.283   1_554  S
C301        O307   1.258       .  A
C301        O309   1.259       .  A
C301       C1194   1.424       .  S
O302        C310   1.259       .  A
O303        C310   1.258       .  A
C304        O311   1.257       .  A
C304        O305   1.264   1_554  A
C304       C1108   1.445       .  S
C306        O308   1.256       .  A
C306        O312   1.264   1_554  A
C306       C1082   1.444   1_554  S
C310       C1544   1.451       .  S
In313       O315   2.326       .  S
In313       O316   2.400       .  S
In313       O324   2.268       .  S
In313       O318   2.247       .  S
In313       O320   2.258       .  S
In313       O321   2.394       .  S
In313       O322   2.280       .  S
In313       O325   2.327       .  S
C314        O320   1.260       .  A
C314        O322   1.265       .  A
C314       C1348   1.454       .  S
O315        C323   1.261       .  A
O316        C323   1.275       .  A
C317        O324   1.266       .  A
C317        O318   1.261       .  A
C317       C1066   1.448       .  S
C319        O321   1.273       .  A
C319        O325   1.261       .  A
C319        C345   1.544       .  S
C323        C332   1.547       .  S
In326       O328   2.313       .  S
In326       O329   2.399       .  S
In326       O337   2.273       .  S
In326       O331   2.258       .  S
In326       O333   2.253       .  S
In326       O334   2.398       .  S
In326       O335   2.266       .  S
In326       O338   2.335       .  S
C327        O333   1.261       .  A
C327        O335   1.264       .  A
C327       C1222   1.449       .  S
O328        C336   1.259       .  A
O329        C336   1.274       .  A
C330        O337   1.266       .  A
C330        O331   1.262       .  A
C330       C1390   1.453       .  S
C332        O334   1.270       .  A
C332        O338   1.262       .  A
C336        C362   1.541       .  S
In339       O341   2.312   1_556  S
In339       O342   2.382   1_556  S
In339       O350   2.280   1_556  S
In339       O344   2.263   1_556  S
In339       O346   2.261       .  S
In339       O347   2.391       .  S
In339       O348   2.271       .  S
In339       O351   2.327       .  S
C340        O346   1.262       .  A
C340        O348   1.264       .  A
C340       C1038   1.452       .  S
O341        C349   1.261       .  A
O342        C349   1.274       .  A
C343        O350   1.265       .  A
C343        O344   1.262       .  A
C343       C1052   1.458       .  S
C345        O347   1.272       .  A
C345        O351   1.262       .  A
C349        C358   1.537       .  S
In352       O354   2.394       .  S
In352       O355   2.320       .  S
In352       O363   2.268       .  S
In352       O357   2.264       .  S
In352       O359   2.266       .  S
In352       O360   2.382       .  S
In352       O361   2.278       .  S
In352       O364   2.321       .  S
C353        O359   1.262       .  A
C353        O361   1.264       .  A
C353       C1122   1.456       .  S
O354        C362   1.271       .  A
O355        C362   1.261       .  A
C356        O363   1.264       .  A
C356        O357   1.262       .  A
C356       C1024   1.452       .  S
C358        O360   1.270       .  A
C358        O364   1.261       .  A
In365       O367   2.296       .  S
In365       O368   2.245       .  S
In365       O376   2.293       .  S
In365       O370   2.248       .  S
In365       O372   2.225       .  S
In365       O373   2.271       .  S
In365       O374   2.230       .  S
In365       O377   2.297       .  S
C366        O372   1.259       .  A
C366        O374   1.259       .  A
C366        C984   1.421       .  S
O367        C375   1.265       .  A
O368        C375   1.255       .  A
C369        O376   1.266       .  A
C369        O370   1.256       .  A
C369        C996   1.451       .  S
C371        O373   1.257       .  A
C371        O377   1.263       .  A
C371        C968   1.460       .  S
C375       C1010   1.451       .  S
In378       O380   2.289       .  S
In378       O381   2.274       .  S
In378       O389   2.249       .  S
In378       O383   2.284       .  S
In378       O385   2.228       .  S
In378       O386   2.289       .  S
In378       O387   2.236       .  S
In378       O390   2.242       .  S
C379        O385   1.258       .  A
C379        O387   1.260       .  A
C379        C942   1.423       .  S
O380        C388   1.260       .  A
O381        C388   1.258       .  A
C382        O389   1.256       .  A
C382        O383   1.265       .  A
C382        C954   1.448       .  S
C384        O386   1.265       .  A
C384        O390   1.256       .  A
C384       C1012   1.450       .  S
C388       C1626   1.458       .  S
In391       O393   2.276       .  S
In391       O394   2.238       .  S
In391       O402   2.239       .  S
In391       O396   2.283       .  S
In391       O398   2.234       .  S
In391       O399   2.276       .  S
In391       O400   2.244       .  S
In391       O403   2.268       .  S
C392        O398   1.257       .  A
C392        O400   1.259       .  A
C392        C912   1.427       .  S
O393        C401   1.264       .  A
O394        C401   1.257       .  A
C395        O402   1.254       .  A
C395        O396   1.262       .  A
C395        C956   1.443       .  S
C397        O399   1.258       .  A
C397        O403   1.257       .  A
C397       C1738   1.448       .  S
C401        C926   1.442       .  S
In404       O406   2.284       .  S
In404       O407   2.261       .  S
In404       O415   2.246       .  S
In404       O409   2.294       .  S
In404       O411   2.240       .  S
In404       O412   2.279       .  S
In404       O413   2.230       .  S
In404       O416   2.235       .  S
C405        O411   1.259       .  A
C405        O413   1.259       .  A
C405        C900   1.426       .  S
O406        C414   1.261       .  A
O407        C414   1.257       .  A
C408        O415   1.255       .  A
C408        O409   1.264       .  A
C408        C998   1.450       .  S
C410        O412   1.264       .  A
C410        O416   1.257       .  A
C410        C928   1.443       .  S
C414       C1040   1.451       .  S
In417       O419   2.243       .  S
In417       O420   2.278       .  S
In417       O428   2.257       .  S
In417       O422   2.279       .  S
In417       O424   2.241       .  S
In417       O425   2.273       .  S
In417       O426   2.243       .  S
In417       O429   2.271       .  S
C418        O424   1.259       .  A
C418        O426   1.260       .  A
C418        C914   1.430       .  S
O419        C427   1.257       .  A
O420        C427   1.263       .  A
C421        O428   1.254       .  A
C421        O422   1.259       .  A
C421        C870   1.443       .  S
C423        O425   1.259       .  A
C423        O429   1.259       .  A
C423       C1710   1.451       .  S
C427        C886   1.444       .  S
In430       O432   2.290       .  S
In430       O433   2.262       .  S
In430       O441   2.278       .  S
In430       O435   2.246       .  S
In430       O437   2.221       .  S
In430       O438   2.238       .  S
In430       O439   2.248       .  S
In430       O442   2.282       .  S
C431        O437   1.259       .  A
C431        O439   1.261       .  A
C431        C940   1.426       .  S
O432        C440   1.263       .  A
O433        C440   1.256       .  A
C434        O441   1.262       .  A
C434        O435   1.256       .  A
C434        C856   1.445       .  S
C436        O438   1.256       .  A
C436        O442   1.264       .  A
C436        C884   1.443       .  S
C440       C1530   1.453       .  S
In443       O445   2.272       .  S
In443       O446   2.268       .  S
In443       O454   2.281       .  S
In443       O448   2.215       .  S
In443       O450   2.252       .  S
In443       O451   2.256       .  S
In443       O452   2.241       .  S
In443       O455   2.284       .  S
C444        O450   1.257       .  A
C444        O452   1.254       .  A
C444        C898   1.425       .  S
O445        C453   1.261       .  A
O446        C453   1.260       .  A
C447        O454   1.268       .  A
C447        O448   1.257       .  A
C447        C872   1.440       .  S
C449        O451   1.255       .  A
C449        O455   1.260       .  A
C449        C844   1.447       .  S
C453       C1026   1.451       .  S
In456       O458   2.236       .  S
In456       O459   2.290       .  S
In456       O467   2.239       .  S
In456       O461   2.284       .  S
In456       O463   2.232       .  S
In456       O464   2.263       .  S
In456       O465   2.213       .  S
In456       O468   2.292       .  S
C457        O463   1.260       .  A
C457        O465   1.260       .  A
C457        C982   1.419       .  S
O458        C466   1.255       .  A
O459        C466   1.267       .  A
C460        O467   1.255       .  A
C460        O461   1.264       .  A
C460        C858   1.446       .  S
C462        O464   1.257       .  A
C462        O468   1.264       .  A
C462        C828   1.456       .  S
C466        C842   1.446       .  S
In469       O471   2.315       .  S
In469       O472   2.279       .  S
In469       O480   2.249       .  S
In469       O474   2.294       .  S
In469       O476   2.249       .  S
In469       O477   2.282       .  S
In469       O478   2.233       .  S
In469       O481   2.277       .  S
C470        O476   1.258       .  A
C470        O478   1.257       .  A
C470        C786   1.426       .  S
O471        C479   1.262       .  A
O472        C479   1.254       .  A
C473        O480   1.258       .  A
C473        O474   1.268       .  A
C473        C800   1.454       .  S
C475        O477   1.259       .  A
C475        O481   1.259       .  A
C475        C814   1.453       .  S
C479       C1614   1.465       .  S
In482       O484   2.260       .  S
In482       O485   2.297       .  S
In482       O493   2.291       .  S
In482       O487   2.237       .  S
In482       O489   2.242       .  S
In482       O490   2.299       .  S
In482       O491   2.244       .  S
In482       O494   2.272       .  S
C483        O489   1.256       .  A
C483        O491   1.252       .  A
C483        C758   1.420       .  S
O484        C492   1.254       .  A
O485        C492   1.263       .  A
C486        O493   1.269       .  A
C486        O487   1.259       .  A
C486        C802   1.451       .  S
C488        O490   1.263       .  A
C488        O494   1.256       .  A
C488       C1724   1.460       .  S
C492        C774   1.453       .  S
In495       O497   2.292       .  S
In495       O498   2.232       .  S
In495       O506   2.243       .  S
In495       O500   2.283       .  S
In495       O502   2.223       .  S
In495       O503   2.282       .  S
In495       O504   2.228       .  S
In495       O507   2.288       .  S
C496        O502   1.257       .  A
C496        O504   1.257       .  A
C496        C730   1.416       .  S
O497        C505   1.267       .  A
O498        C505   1.255       .  A
C499        O506   1.257       .  A
C499        O500   1.266       .  A
C499        C744   1.448       .  S
C501        O503   1.258       .  A
C501        O507   1.258       .  A
C501        C718   1.458       .  S
C505        C816   1.448       .  S
In508       O510   2.309       .  S
In508       O511   2.268       .  S
In508       O519   2.245       .  S
In508       O513   2.271       .  S
In508       O515   2.228       .  S
In508       O516   2.235       .  S
In508       O517   2.227       .  S
In508       O520   2.299       .  S
C509        O515   1.257       .  A
C509        O517   1.258       .  A
C509        C702   1.417       .  S
O510        C518   1.261       .  A
O511        C518   1.253       .  A
C512        O519   1.260       .  A
C512        O513   1.266       .  A
C512        C746   1.448       .  S
C514        O516   1.253       .  A
C514        O520   1.266       .  A
C514        C772   1.449       .  S
C518       C1054   1.457       .  S
In521       O523   2.293       .  S
In521       O524   2.239       .  S
In521       O532   2.236       .  S
In521       O526   2.279       .  S
In521       O528   2.229       .  S
In521       O529   2.271       .  S
In521       O530   2.228       .  S
In521       O533   2.285       .  S
C522        O528   1.259       .  A
C522        O530   1.259       .  A
C522        C760   1.421       .  S
O523        C531   1.265       .  A
O524        C531   1.254       .  A
C525        O532   1.255       .  A
C525        O526   1.264       .  A
C525        C688   1.443       .  S
C527        O529   1.258       .  A
C527        O533   1.261       .  A
C527       C1684   1.455       .  S
C531        C674   1.447       .  S
In534       O536   2.300       .  S
In534       O537   2.267       .  S
In534       O545   2.249       .  S
In534       O539   2.286       .  S
In534       O541   2.220       .  S
In534       O542   2.244       .  S
In534       O543   2.241       .  S
In534       O546   2.294       .  S
C535        O541   1.259       .  A
C535        O543   1.261       .  A
C535        C788   1.423       .  S
O536        C544   1.263       .  A
O537        C544   1.256       .  A
C538        O545   1.255       .  A
C538        O539   1.262       .  A
C538        C660   1.447       .  S
C540        O542   1.255       .  A
C540        O546   1.266       .  A
C540        C676   1.449       .  S
C544       C1586   1.459       .  S
In547       O549   2.233       .  S
In547       O550   2.291       .  S
In547       O558   2.226       .  S
In547       O552   2.282       .  S
In547       O554   2.218       .  S
In547       O555   2.276       .  S
In547       O556   2.223       .  S
In547       O559   2.270       .  S
C548        O554   1.258       .  A
C548        O556   1.258       .  A
C548        C732   1.415       .  S
O549        C557   1.255       .  A
O550        C557   1.267       .  A
C551        O558   1.257       .  A
C551        O552   1.268       .  A
C551        C662   1.444       .  S
C553        O555   1.260       .  A
C553        O559   1.258       .  A
C553        C632   1.453       .  S
C557        C646   1.447       .  S
In560       O562   2.291       .  S
In560       O563   2.260       .  S
In560       O571   2.270       .  S
In560       O565   2.236       .  S
In560       O567   2.238       .  S
In560       O568   2.237       .  S
In560       O569   2.221       .  S
In560       O572   2.284       .  S
C561        O567   1.259       .  A
C561        O569   1.256       .  A
C561        C704   1.418       .  S
O562        C570   1.259       .  A
O563        C570   1.253       .  A
C564        O571   1.264       .  A
C564        O565   1.258       .  A
C564        C690   1.441       .  S
C566        O568   1.256       .  A
C566        O572   1.266       .  A
C566        C648   1.446       .  S
C570       C1068   1.449       .  S
In573       O575   2.343       .  S
In573       O576   2.411       .  S
In573       O584   2.270       .  S
In573       O578   2.265       .  S
In573       O580   2.261       .  S
In573       O581   2.395       .  S
In573       O582   2.284       .  S
In573       O585   2.337       .  S
C574        O580   1.261       .  A
C574        O582   1.266       .  A
C574        C634   1.455       .  S
O575        C583   1.260       .  A
O576        C583   1.273       .  A
C577        O584   1.264       .  A
C577        O578   1.261       .  A
C577       C1318   1.453       .  S
C579        O581   1.269       .  A
C579        O585   1.262       .  A
C579        C605   1.545       .  S
C583        C592   1.554       .  S
In586       O588   2.337       .  S
In586       O589   2.402       .  S
In586       O597   2.284       .  S
In586       O591   2.272       .  S
In586       O593   2.277       .  S
In586       O594   2.405       .  S
In586       O595   2.284       .  S
In586       O598   2.350       .  S
C587        O593   1.262       .  A
C587        O595   1.265       .  A
C587       C1418   1.462       .  S
O588        C596   1.261       .  A
O589        C596   1.273       .  A
C590        O597   1.264       .  A
C590        O591   1.262       .  A
C590       C1166   1.459       .  S
C592        O594   1.271       .  A
C592        O598   1.263       .  A
C596        C622   1.550       .  S
In599       O601   2.339   1_556  S
In599       O602   2.406   1_556  S
In599       O610   2.287       .  S
In599       O604   2.270       .  S
In599       O606   2.272   1_556  S
In599       O607   2.396       .  S
In599       O608   2.284   1_556  S
In599       O611   2.320       .  S
C600        O606   1.261       .  A
C600        O608   1.264       .  A
C600        C716   1.458       .  S
O601        C609   1.262       .  A
O602        C609   1.274       .  A
C603        O610   1.266       .  A
C603        O604   1.263       .  A
C603        C970   1.462       .  S
C605        O607   1.276       .  A
C605        O611   1.261       .  A
C609        C618   1.553       .  S
In612       O614   2.342       .  S
In612       O615   2.401       .  S
In612       O623   2.287       .  S
In612       O617   2.267       .  S
In612       O619   2.260       .  S
In612       O620   2.408       .  S
In612       O621   2.277       .  S
In612       O624   2.340       .  S
C613        O619   1.261       .  A
C613        O621   1.264       .  A
C613        C830   1.454       .  S
O614        C622   1.261       .  A
O615        C622   1.271       .  A
C616        O623   1.266       .  A
C616        O617   1.261       .  A
C616       C1096   1.458       .  S
C618        O620   1.273       .  A
C618        O624   1.261       .  A
C625        C633   1.459       .  S
C625        C626   1.404       .  A
C625        C630   1.405       .  A
C626        C627   1.405       .  A
C626        H635   1.083       .  S
C627        C628   1.404       .  A
C627        H636   1.083       .  S
C628        C631   1.459       .  S
C628        C629   1.406       .  A
C629        C630   1.408       .  A
C629        H637   1.083       .  S
C630        H638   1.083       .  S
C631        C632   1.217       .  T
C633        C634   1.218       .  T
C639        C647   1.452       .  S
C639        C640   1.403       .  A
C639        C644   1.404       .  A
C640        C641   1.402   1_455  A
C640        H649   1.084       .  S
C641        C642   1.403       .  A
C641        H650   1.084       .  S
C642        C645   1.453       .  S
C642        C643   1.404       .  A
C643        C644   1.406   1_655  A
C643        H651   1.083       .  S
C644        H652   1.083       .  S
C645        C646   1.214       .  T
C647        C648   1.213       .  T
C653        C661   1.451       .  S
C653        C654   1.404       .  A
C653        C658   1.403       .  A
C654        C655   1.405       .  A
C654        H663   1.083       .  S
C655        C656   1.404       .  A
C655        H664   1.084       .  S
C656        C659   1.452       .  S
C656        C657   1.403       .  A
C657        C658   1.402       .  A
C657        H665   1.083       .  S
C658        H666   1.084       .  S
C659        C660   1.213       .  T
C661        C662   1.212       .  T
C667        C675   1.454       .  S
C667        C668   1.402       .  A
C667        C672   1.406       .  A
C668        C669   1.401   1_655  A
C668        H677   1.085       .  S
C669        C670   1.403       .  A
C669        H678   1.082       .  S
C670        C673   1.453       .  S
C670        C671   1.405       .  A
C671        C672   1.408   1_455  A
C671        H679   1.085       .  S
C672        H680   1.081       .  S
C673        C674   1.214       .  T
C675        C676   1.214       .  T
C681        C689   1.447       .  S
C681        C682   1.403       .  A
C681        C686   1.403       .  A
C682        C683   1.400       .  A
C682        H691   1.084       .  S
C683        C684   1.403       .  A
C683        H692   1.083       .  S
C684        C687   1.448       .  S
C684        C685   1.403       .  A
C685        C686   1.404       .  A
C685        H693   1.084       .  S
C686        H694   1.082       .  S
C687        C688   1.211       .  T
C689        C690   1.210       .  T
C695        C703   1.423       .  S
C695        C696   1.397       .  A
C695        C700   1.400       .  A
C696        C697   1.390       .  A
C696        H705   1.083       .  S
C697        C698   1.398       .  A
C697        H706   1.085       .  S
C698        C701   1.422       .  S
C698        C699   1.399       .  A
C699        C700   1.395       .  A
C699        H707   1.082       .  S
C700        H708   1.085       .  S
C701        C702   1.195   1_556  T
C703        C704   1.196       .  T
C709        C717   1.463       .  S
C709        C710   1.405       .  A
C709        C714   1.406       .  A
C710        C711   1.408       .  A
C710        H719   1.084       .  S
C711        C712   1.406       .  A
C711        H720   1.082       .  S
C712        C715   1.463       .  S
C712        C713   1.405       .  A
C713        C714   1.408       .  A
C713        H721   1.084       .  S
C714        H722   1.083       .  S
C715        C716   1.220       .  T
C717        C718   1.220       .  T
C723        C731   1.421       .  S
C723        C724   1.398       .  A
C723        C728   1.398       .  A
C724        C725   1.392       .  A
C724        H733   1.083       .  S
C725        C726   1.398       .  A
C725        H734   1.085       .  S
C726        C729   1.421       .  S
C726        C727   1.398       .  A
C727        C728   1.391       .  A
C727        H735   1.082       .  S
C728        H736   1.085       .  S
C729        C730   1.195   1_556  T
C731        C732   1.194       .  T
C737        C745   1.453       .  S
C737        C738   1.403       .  A
C737        C742   1.404       .  A
C738        C739   1.403   1_455  A
C738        H747   1.083       .  S
C739        C740   1.403       .  A
C739        H748   1.084       .  S
C740        C743   1.453       .  S
C740        C741   1.405       .  A
C741        C742   1.405   1_655  A
C741        H749   1.083       .  S
C742        H750   1.084       .  S
C743        C744   1.214       .  T
C745        C746   1.214       .  T
C751        C759   1.426       .  S
C751        C752   1.398       .  A
C751        C756   1.400       .  A
C752        C753   1.391       .  A
C752        H761   1.083       .  S
C753        C754   1.398       .  A
C753        H762   1.084       .  S
C754        C757   1.424       .  S
C754        C755   1.400       .  A
C755        C756   1.395       .  A
C755        H763   1.083       .  S
C756        H764   1.084       .  S
C757        C758   1.197   1_556  T
C759        C760   1.198       .  T
C765        C773   1.458       .  S
C765        C766   1.405       .  A
C765        C770   1.404       .  A
C766        C767   1.407       .  A
C766        H775   1.083       .  S
C767        C768   1.405       .  A
C767        H776   1.083       .  S
C768        C771   1.456       .  S
C768        C769   1.403       .  A
C769        C770   1.404       .  A
C769        H777   1.084       .  S
C770        H778   1.083       .  S
C771        C772   1.215       .  T
C773        C774   1.217       .  T
C779        C787   1.429       .  S
C779        C780   1.401       .  A
C779        C784   1.398       .  A
C780        C781   1.395       .  A
C780        H789   1.083       .  S
C781        C782   1.398       .  A
C781        H790   1.085       .  S
C782        C785   1.431       .  S
C782        C783   1.401       .  A
C783        C784   1.396       .  A
C783        H791   1.082       .  S
C784        H792   1.085       .  S
C785        C786   1.200   1_556  T
C787        C788   1.199       .  T
C793        C801   1.458       .  S
C793        C794   1.405       .  A
C793        C798   1.404       .  A
C794        C795   1.408   1_455  A
C794        H803   1.082       .  S
C795        C796   1.405       .  A
C795        H804   1.084       .  S
C796        C799   1.459       .  S
C796        C797   1.404       .  A
C797        C798   1.405   1_655  A
C797        H805   1.082       .  S
C798        H806   1.084       .  S
C799        C800   1.217       .  T
C801        C802   1.216       .  T
C807        C815   1.455       .  S
C807        C808   1.405       .  A
C807        C812   1.403       .  A
C808        C809   1.408       .  A
C808        H817   1.084       .  S
C809        C810   1.406       .  A
C809        H818   1.082       .  S
C810        C813   1.457       .  S
C810        C811   1.403       .  A
C811        C812   1.403       .  A
C811        H819   1.084       .  S
C812        H820   1.082       .  S
C813        C814   1.216       .  T
C815        C816   1.214       .  T
C821        C829   1.459       .  S
C821        C822   1.405       .  A
C821        C826   1.405       .  A
C822        C823   1.407       .  A
C822        H831   1.084       .  S
C823        C824   1.405       .  A
C823        H832   1.082       .  S
C824        C827   1.461       .  S
C824        C825   1.406       .  A
C825        C826   1.407       .  A
C825        H833   1.084       .  S
C826        H834   1.082       .  S
C827        C828   1.219       .  T
C829        C830   1.217       .  T
C835        C843   1.452       .  S
C835        C836   1.402   1_455  A
C835        C840   1.405       .  A
C836        C837   1.402       .  A
C836        H845   1.084   1_655  S
C837        C838   1.403       .  A
C837        H846   1.083       .  S
C838        C841   1.452       .  S
C838        C839   1.404       .  A
C839        C840   1.406   1_655  A
C839        H847   1.084       .  S
C840        H848   1.082       .  S
C841        C842   1.213       .  T
C843        C844   1.213       .  T
C849        C857   1.451       .  S
C849        C850   1.404       .  A
C849        C854   1.403       .  A
C850        C851   1.405       .  A
C850        H859   1.083       .  S
C851        C852   1.404       .  A
C851        H860   1.083       .  S
C852        C855   1.450       .  S
C852        C853   1.402       .  A
C853        C854   1.402       .  A
C853        H861   1.084       .  S
C854        H862   1.083       .  S
C855        C856   1.212       .  T
C857        C858   1.213       .  T
C863        C871   1.447       .  S
C863        C864   1.402       .  A
C863        C868   1.403       .  A
C864        C865   1.404       .  A
C864        H873   1.084       .  S
C865        C866   1.404       .  A
C865        H874   1.082       .  S
C866        C869   1.448       .  S
C866        C867   1.401       .  A
C867        C868   1.399       .  A
C867        H875   1.085       .  S
C868        H876   1.083       .  S
C869        C870   1.211       .  T
C871        C872   1.209       .  T
C877        C885   1.449       .  S
C877        C878   1.402       .  A
C877        C882   1.404       .  A
C878        C879   1.400   1_455  A
C878        H887   1.084       .  S
C879        C880   1.402       .  A
C879        H888   1.083       .  S
C880        C883   1.448       .  S
C880        C881   1.404       .  A
C881        C882   1.405   1_655  A
C881        H889   1.084       .  S
C882        H890   1.083       .  S
C883        C884   1.211       .  T
C885        C886   1.211       .  T
C891        C899   1.431       .  S
C891        C892   1.401       .  A
C891        C896   1.399       .  A
C892        C893   1.398       .  A
C892        H901   1.082       .  S
C893        C894   1.401       .  A
C893        H902   1.085       .  S
C894        C897   1.430       .  S
C894        C895   1.398       .  A
C895        C896   1.393       .  A
C895        H903   1.082       .  S
C896        H904   1.085       .  S
C897        C898   1.200       .  T
C899        C900   1.200   1_554  T
C905        C913   1.434       .  S
C905        C906   1.400       .  A
C905        C910   1.401       .  A
C906        C907   1.396       .  A
C906        H915   1.084       .  S
C907        C908   1.400       .  A
C907        H916   1.084       .  S
C908        C911   1.432       .  S
C908        C909   1.400       .  A
C909        C910   1.397       .  A
C909        H917   1.084       .  S
C910        H918   1.083       .  S
C911        C912   1.201   1_554  T
C913        C914   1.202       .  T
C919        C927   1.448       .  S
C919        C920   1.401       .  A
C919        C924   1.404       .  A
C920        C921   1.399       .  A
C920        H929   1.085       .  S
C921        C922   1.401       .  A
C921        H930   1.082       .  S
C922        C925   1.447       .  S
C922        C923   1.404       .  A
C923        C924   1.405       .  A
C923        H931   1.085       .  S
C924        H932   1.082       .  S
C925        C926   1.210       .  T
C927        C928   1.211       .  T
C933        C941   1.429       .  S
C933        C934   1.399       .  A
C933        C938   1.399       .  A
C934        C935   1.396       .  A
C934        H943   1.085       .  S
C935        C936   1.400       .  A
C935        H944   1.082       .  S
C936        C939   1.430       .  S
C936        C937   1.400       .  A
C937        C938   1.395       .  A
C937        H945   1.084       .  S
C938        H946   1.083       .  S
C939        C940   1.200       .  T
C941        C942   1.199   1_554  T
C947        C955   1.450       .  S
C947        C948   1.402       .  A
C947        C952   1.404       .  A
C948        C949   1.403   1_455  A
C948        H957   1.084       .  S
C949        C950   1.403       .  A
C949        H958   1.082       .  S
C950        C953   1.452       .  S
C950        C951   1.404       .  A
C951        C952   1.404   1_655  A
C951        H959   1.084       .  S
C952        H960   1.082       .  S
C953        C954   1.214       .  T
C955        C956   1.211       .  T
C961        C969   1.467       .  S
C961        C962   1.406       .  A
C961        C966   1.406       .  A
C962        C963   1.410       .  A
C962        H971   1.084       .  S
C963        C964   1.406       .  A
C963        H972   1.082       .  S
C964        C967   1.466       .  S
C964        C965   1.406       .  A
C965        C966   1.409       .  A
C965        H973   1.084       .  S
C966        H974   1.082       .  S
C967        C968   1.221       .  T
C969        C970   1.222       .  T
C975        C983   1.426       .  S
C975        C976   1.399       .  A
C975        C980   1.399       .  A
C976        C977   1.392       .  A
C976        H985   1.083       .  S
C977        C978   1.398       .  A
C977        H986   1.084       .  S
C978        C981   1.425       .  S
C978        C979   1.399       .  A
C979        C980   1.395       .  A
C979        H987   1.083       .  S
C980        H988   1.084       .  S
C981        C982   1.196       .  T
C983        C984   1.197   1_554  T
C989        C997   1.456       .  S
C989        C990   1.404       .  A
C989        C994   1.404       .  A
C990        C991   1.405   1_455  A
C990        H999   1.084       .  S
C991        C992   1.404       .  A
C991       H1000   1.083       .  S
C992        C995   1.457       .  S
C992        C993   1.405       .  A
C993        C994   1.406   1_655  A
C993       H1001   1.083       .  S
C994       H1002   1.083       .  S
C995        C996   1.216       .  T
C997        C998   1.215       .  T
C1003      C1011   1.455       .  S
C1003      C1004   1.403       .  A
C1003      C1008   1.405       .  A
C1004      C1005   1.402       .  A
C1004      H1013   1.083       .  S
C1005      C1006   1.403       .  A
C1005      H1014   1.084       .  S
C1006      C1009   1.456       .  S
C1006      C1007   1.405       .  A
C1007      C1008   1.407       .  A
C1007      H1015   1.083       .  S
C1008      H1016   1.084       .  S
C1009      C1010   1.215       .  T
C1011      C1012   1.215       .  T
C1017      C1025   1.456       .  S
C1017      C1018   1.405       .  A
C1017      C1022   1.404       .  A
C1018      C1019   1.407       .  A
C1018      H1027   1.085       .  S
C1019      C1020   1.405       .  A
C1019      H1028   1.081       .  S
C1020      C1023   1.456       .  S
C1020      C1021   1.403       .  A
C1021      C1022   1.404       .  A
C1021      H1029   1.085       .  S
C1022      H1030   1.081       .  S
C1023      C1024   1.216       .  T
C1025      C1026   1.215       .  T
C1031      C1039   1.457       .  S
C1031      C1032   1.405       .  A
C1031      C1036   1.404       .  A
C1032      C1033   1.407       .  A
C1032      H1041   1.084       .  S
C1033      C1034   1.406       .  A
C1033      H1042   1.083       .  S
C1034      C1037   1.457       .  S
C1034      C1035   1.403       .  A
C1035      C1036   1.404       .  A
C1035      H1043   1.084       .  S
C1036      H1044   1.082       .  S
C1037      C1038   1.216       .  T
C1039      C1040   1.216       .  T
C1045      C1053   1.462       .  S
C1045      C1046   1.406       .  A
C1045      C1050   1.405       .  A
C1046      C1047   1.408       .  A
C1046      H1055   1.084       .  S
C1047      C1048   1.405       .  A
C1047      H1056   1.083       .  S
C1048      C1051   1.462       .  S
C1048      C1049   1.406       .  A
C1049      C1050   1.408       .  A
C1049      H1057   1.084       .  S
C1050      H1058   1.083       .  S
C1051      C1052   1.219       .  T
C1053      C1054   1.219       .  T
C1059      C1067   1.454       .  S
C1059      C1060   1.405       .  A
C1059      C1064   1.403       .  A
C1060      C1061   1.404       .  A
C1060      H1069   1.083       .  S
C1061      C1062   1.403       .  A
C1061      H1070   1.084       .  S
C1062      C1065   1.453       .  S
C1062      C1063   1.404       .  A
C1063      C1064   1.404       .  A
C1063      H1071   1.083       .  S
C1064      H1072   1.084       .  S
C1065      C1066   1.214       .  T
C1067      C1068   1.214       .  T
C1073      C1081   1.449       .  S
C1073      C1074   1.402   1_556  A
C1073      C1078   1.404       .  A
C1074      C1075   1.399       .  A
C1074      H1083   1.083       .  S
C1075      C1076   1.402   1_554  A
C1075      H1084   1.084       .  S
C1076      C1079   1.450       .  S
C1076      C1077   1.404       .  A
C1077      C1078   1.406       .  A
C1077      H1085   1.083       .  S
C1078      H1086   1.083       .  S
C1079      C1080   1.212       .  T
C1081      C1082   1.211       .  T
C1087      C1095   1.462       .  S
C1087      C1088   1.405       .  A
C1087      C1092   1.405       .  A
C1088      C1089   1.408       .  A
C1088      H1097   1.084       .  S
C1089      C1090   1.406       .  A
C1089      H1098   1.083       .  S
C1090      C1093   1.461       .  S
C1090      C1091   1.404       .  A
C1091      C1092   1.407       .  A
C1091      H1099   1.084       .  S
C1092      H1100   1.082       .  S
C1093      C1094   1.218       .  T
C1095      C1096   1.220       .  T
C1101      C1109   1.449       .  S
C1101      C1102   1.404       .  A
C1101      C1106   1.402       .  A
C1102      C1103   1.406       .  A
C1102      H1111   1.083       .  S
C1103      C1104   1.404       .  A
C1103      H1112   1.084       .  S
C1104      C1107   1.450       .  S
C1104      C1105   1.402   1_556  A
C1105      C1106   1.400   1_554  A
C1105      H1113   1.083       .  S
C1106      H1114   1.084   1_556  S
C1107      C1108   1.212   1_556  T
C1109      C1110   1.211       .  T
C1115      C1123   1.459       .  S
C1115      C1116   1.405       .  A
C1115      C1120   1.404       .  A
C1116      C1117   1.408       .  A
C1116      H1125   1.083       .  S
C1117      C1118   1.405       .  A
C1117      H1126   1.083       .  S
C1118      C1121   1.460       .  S
C1118      C1119   1.405       .  A
C1119      C1120   1.406       .  A
C1119      H1127   1.083       .  S
C1120      H1128   1.083       .  S
C1121      C1122   1.218       .  T
C1123      C1124   1.218       .  T
C1129      C1137   1.449       .  S
C1129      C1130   1.403       .  A
C1129      C1134   1.403   1_554  A
C1130      C1131   1.403       .  A
C1130      H1139   1.083       .  S
C1131      C1132   1.403       .  A
C1131      H1140   1.083       .  S
C1132      C1135   1.451       .  S
C1132      C1133   1.403   1_554  A
C1133      C1134   1.403       .  A
C1133      H1141   1.083       .  S
C1134      H1142   1.083       .  S
C1135      C1136   1.212       .  T
C1137      C1138   1.211       .  T
C1143      C1151   1.450       .  S
C1143      C1144   1.405   1_554  A
C1143      C1148   1.402       .  A
C1144      C1145   1.407       .  A
C1144      H1153   1.082       .  S
C1145      C1146   1.404   1_556  A
C1145      H1154   1.084       .  S
C1146      C1149   1.450       .  S
C1146      C1147   1.402       .  A
C1147      C1148   1.399       .  A
C1147      H1155   1.083       .  S
C1148      H1156   1.085       .  S
C1149      C1150   1.212       .  T
C1151      C1152   1.212       .  T
C1157      C1165   1.463       .  S
C1157      C1158   1.406       .  A
C1157      C1162   1.405       .  A
C1158      C1159   1.409       .  A
C1158      H1167   1.084       .  S
C1159      C1160   1.406       .  A
C1159      H1168   1.083       .  S
C1160      C1163   1.462       .  S
C1160      C1161   1.405       .  A
C1161      C1162   1.406       .  A
C1161      H1169   1.084       .  S
C1162      H1170   1.083       .  S
C1163      C1164   1.219       .  T
C1165      C1166   1.220       .  T
C1171      C1179   1.428       .  S
C1171      C1172   1.400       .  A
C1171      C1176   1.398       .  A
C1172      C1173   1.396       .  A
C1172      H1181   1.084       .  S
C1173      C1174   1.400       .  A
C1173      H1182   1.083       .  S
C1174      C1177   1.428       .  S
C1174      C1175   1.399       .  A
C1175      C1176   1.393       .  A
C1175      H1183   1.085       .  S
C1176      H1184   1.083       .  S
C1177      C1178   1.199       .  T
C1179      C1180   1.199       .  T
C1185      C1193   1.429       .  S
C1185      C1186   1.397       .  A
C1185      C1190   1.402       .  A
C1186      C1187   1.391       .  A
C1186      H1195   1.085       .  S
C1187      C1188   1.399       .  A
C1187      H1196   1.083       .  S
C1188      C1191   1.428       .  S
C1188      C1189   1.400       .  A
C1189      C1190   1.398       .  A
C1189      H1197   1.085       .  S
C1190      H1198   1.082       .  S
C1191      C1192   1.199       .  T
C1193      C1194   1.199       .  T
C1199      C1207   1.457       .  S
C1199      C1200   1.404       .  A
C1199      C1204   1.405       .  A
C1200      C1201   1.405       .  A
C1200      H1209   1.084       .  S
C1201      C1202   1.405       .  A
C1201      H1210   1.083       .  S
C1202      C1205   1.457       .  S
C1202      C1203   1.404       .  A
C1203      C1204   1.406       .  A
C1203      H1211   1.084       .  S
C1204      H1212   1.082       .  S
C1205      C1206   1.216       .  T
C1207      C1208   1.216       .  T
C1213      C1221   1.454       .  S
C1213      C1214   1.404       .  A
C1213      C1218   1.404       .  A
C1214      C1215   1.405       .  A
C1214      H1223   1.082       .  S
C1215      C1216   1.405       .  A
C1215      H1224   1.084       .  S
C1216      C1219   1.456       .  S
C1216      C1217   1.404       .  A
C1217      C1218   1.405       .  A
C1217      H1225   1.082       .  S
C1218      H1226   1.084       .  S
C1219      C1220   1.216       .  T
C1221      C1222   1.214       .  T
C1227      C1235   1.431       .  S
C1227      C1228   1.400       .  A
C1227      C1232   1.400       .  A
C1228      C1229   1.395       .  A
C1228      H1237   1.083       .  S
C1229      C1230   1.400       .  A
C1229      H1238   1.084       .  S
C1230      C1233   1.431       .  S
C1230      C1231   1.400       .  A
C1231      C1232   1.396       .  A
C1231      H1239   1.083       .  S
C1232      H1240   1.084       .  S
C1233      C1234   1.200       .  T
C1235      C1236   1.201       .  T
C1241      C1249   1.448       .  S
C1241      C1242   1.405       .  A
C1241      C1246   1.401       .  A
C1242      C1243   1.406       .  A
C1242      H1251   1.082       .  S
C1243      C1244   1.404       .  A
C1243      H1252   1.084       .  S
C1244      C1247   1.447       .  S
C1244      C1245   1.401       .  A
C1245      C1246   1.398       .  A
C1245      H1253   1.083       .  S
C1246      H1254   1.084       .  S
C1247      C1248   1.210       .  T
C1249      C1250   1.211       .  T
C1255      C1263   1.431       .  S
C1255      C1256   1.399       .  A
C1255      C1260   1.401       .  A
C1256      C1257   1.394       .  A
C1256      H1265   1.084       .  S
C1257      C1258   1.399       .  A
C1257      H1266   1.083       .  S
C1258      C1261   1.431       .  S
C1258      C1259   1.401       .  A
C1259      C1260   1.397       .  A
C1259      H1267   1.084       .  S
C1260      H1268   1.083       .  S
C1261      C1262   1.200       .  T
C1263      C1264   1.201       .  T
C1269      C1277   1.451       .  S
C1269      C1270   1.402       .  A
C1269      C1274   1.405       .  A
C1270      C1271   1.401       .  A
C1270      H1279   1.082       .  S
C1271      C1272   1.402       .  A
C1271      H1280   1.084       .  S
C1272      C1275   1.451       .  S
C1272      C1273   1.405       .  A
C1273      C1274   1.406       .  A
C1273      H1281   1.083       .  S
C1274      H1282   1.084       .  S
C1275      C1276   1.212       .  T
C1277      C1278   1.213       .  T
C1283      C1291   1.456       .  S
C1283      C1284   1.405       .  A
C1283      C1288   1.403       .  A
C1284      C1285   1.406       .  A
C1284      H1293   1.082       .  S
C1285      C1286   1.405       .  A
C1285      H1294   1.084       .  S
C1286      C1289   1.456       .  S
C1286      C1287   1.404       .  A
C1287      C1288   1.404       .  A
C1287      H1295   1.082       .  S
C1288      H1296   1.084       .  S
C1289      C1290   1.215       .  T
C1291      C1292   1.215       .  T
C1297      C1305   1.453   1_554  S
C1297      C1298   1.405       .  A
C1297      C1302   1.403   1_554  A
C1298      C1299   1.408       .  A
C1298      H1307   1.084       .  S
C1299      C1300   1.405   1_554  A
C1299      H1308   1.082       .  S
C1300      C1303   1.452       .  S
C1300      C1301   1.402       .  A
C1301      C1302   1.400       .  A
C1301      H1309   1.084       .  S
C1302      H1310   1.083       .  S
C1303      C1304   1.213       .  T
C1305      C1306   1.213       .  T
C1311      C1319   1.459       .  S
C1311      C1312   1.405       .  A
C1311      C1316   1.404       .  A
C1312      C1313   1.408       .  A
C1312      H1321   1.083       .  S
C1313      C1314   1.406       .  A
C1313      H1322   1.083       .  S
C1314      C1317   1.457       .  S
C1314      C1315   1.403       .  A
C1315      C1316   1.404       .  A
C1315      H1323   1.083       .  S
C1316      H1324   1.083       .  S
C1317      C1318   1.216       .  T
C1319      C1320   1.217       .  T
C1325      C1333   1.451       .  S
C1325      C1326   1.402       .  A
C1325      C1330   1.405       .  A
C1326      C1327   1.402       .  A
C1326      H1335   1.083   1_556  S
C1327      C1328   1.402       .  A
C1327      H1336   1.083   1_556  S
C1328      C1331   1.450       .  S
C1328      C1329   1.404       .  A
C1329      C1330   1.404       .  A
C1329      H1337   1.084       .  S
C1330      H1338   1.083       .  S
C1331      C1332   1.212       .  T
C1333      C1334   1.212       .  T
C1339      C1347   1.459       .  S
C1339      C1340   1.404       .  A
C1339      C1344   1.405       .  A
C1340      C1341   1.407       .  A
C1340      H1349   1.085       .  S
C1341      C1342   1.406       .  A
C1341      H1350   1.081       .  S
C1342      C1345   1.459       .  S
C1342      C1343   1.404       .  A
C1343      C1344   1.406       .  A
C1343      H1351   1.085       .  S
C1344      H1352   1.081       .  S
C1345      C1346   1.217       .  T
C1347      C1348   1.217       .  T
C1353      C1361   1.454       .  S
C1353      C1354   1.403       .  A
C1353      C1358   1.404   1_556  A
C1354      C1355   1.403       .  A
C1354      H1363   1.084       .  S
C1355      C1356   1.404       .  A
C1355      H1364   1.083       .  S
C1356      C1359   1.454       .  S
C1356      C1357   1.404   1_556  A
C1357      C1358   1.406       .  A
C1357      H1365   1.084       .  S
C1358      H1366   1.082       .  S
C1359      C1360   1.214       .  T
C1361      C1362   1.214       .  T
C1367      C1375   1.454       .  S
C1367      C1368   1.405       .  A
C1367      C1372   1.403       .  A
C1368      C1369   1.407       .  A
C1368      H1377   1.083       .  S
C1369      C1370   1.405       .  A
C1369      H1378   1.084       .  S
C1370      C1373   1.454       .  S
C1370      C1371   1.403       .  A
C1371      C1372   1.402       .  A
C1371      H1379   1.083   1_556  S
C1372      H1380   1.084   1_556  S
C1373      C1374   1.214       .  T
C1375      C1376   1.214       .  T
C1381      C1389   1.458       .  S
C1381      C1382   1.403       .  A
C1381      C1386   1.406       .  A
C1382      C1383   1.404       .  A
C1382      H1391   1.083       .  S
C1383      C1384   1.404       .  A
C1383      H1392   1.083       .  S
C1384      C1387   1.457       .  S
C1384      C1385   1.405       .  A
C1385      C1386   1.407       .  A
C1385      H1393   1.084       .  S
C1386      H1394   1.083       .  S
C1387      C1388   1.216       .  T
C1389      C1390   1.217       .  T
C1395      C1403   1.428       .  S
C1395      C1396   1.399       .  A
C1395      C1400   1.400       .  A
C1396      C1397   1.393       .  A
C1396      H1405   1.082       .  S
C1397      C1398   1.399       .  A
C1397      H1406   1.085       .  S
C1398      C1401   1.426       .  S
C1398      C1399   1.399       .  A
C1399      C1400   1.395       .  A
C1399      H1407   1.082       .  S
C1400      H1408   1.085       .  S
C1401      C1402   1.198       .  T
C1403      C1404   1.199       .  T
C1409      C1417   1.466       .  S
C1409      C1410   1.406       .  A
C1409      C1414   1.406       .  A
C1410      C1411   1.409       .  A
C1410      H1419   1.083       .  S
C1411      C1412   1.406       .  A
C1411      H1420   1.083       .  S
C1412      C1415   1.465       .  S
C1412      C1413   1.406       .  A
C1413      C1414   1.409       .  A
C1413      H1421   1.083       .  S
C1414      H1422   1.083       .  S
C1415      C1416   1.221       .  T
C1417      C1418   1.222       .  T
C1423      C1431   1.424       .  S
C1423      C1424   1.398       .  A
C1423      C1428   1.399       .  A
C1424      C1425   1.389       .  A
C1424      H1433   1.084       .  S
C1425      C1426   1.397       .  A
C1425      H1434   1.084       .  S
C1426      C1429   1.425       .  S
C1426      C1427   1.400       .  A
C1427      C1428   1.397       .  A
C1427      H1435   1.083       .  S
C1428      H1436   1.083       .  S
C1429      C1430   1.197       .  T
C1431      C1432   1.196       .  T
C1437      C1445   1.450       .  S
C1437      C1438   1.403       .  A
C1437      C1442   1.403       .  A
C1438      C1439   1.403       .  A
C1438      H1447   1.082       .  S
C1439      C1440   1.403       .  A
C1439      H1448   1.084       .  S
C1440      C1443   1.450       .  S
C1440      C1441   1.403       .  A
C1441      C1442   1.403       .  A
C1441      H1449   1.082       .  S
C1442      H1450   1.084       .  S
C1443      C1444   1.212       .  T
C1445      C1446   1.212       .  T
C1451      C1459   1.427       .  S
C1451      C1452   1.399       .  A
C1451      C1456   1.400       .  A
C1452      C1453   1.389       .  A
C1452      H1461   1.084       .  S
C1453      C1454   1.396       .  A
C1453      H1462   1.084       .  S
C1454      C1457   1.428       .  S
C1454      C1455   1.403       .  A
C1455      C1456   1.399       .  A
C1455      H1463   1.083       .  S
C1456      H1464   1.084       .  S
C1457      C1458   1.199       .  T
C1459      C1460   1.198       .  T
C1465      C1473   1.453       .  S
C1465      C1466   1.404       .  A
C1465      C1470   1.403       .  A
C1466      C1467   1.407       .  A
C1466      H1475   1.084       .  S
C1467      C1468   1.405       .  A
C1467      H1476   1.082       .  S
C1468      C1471   1.452       .  S
C1468      C1469   1.402       .  A
C1469      C1470   1.401       .  A
C1469      H1477   1.085       .  S
C1470      H1478   1.082       .  S
C1471      C1472   1.213       .  T
C1473      C1474   1.214       .  T
C1479      C1487   1.429       .  S
C1479      C1480   1.399       .  A
C1479      C1484   1.399       .  A
C1480      C1481   1.397       .  A
C1480      H1489   1.085       .  S
C1481      C1482   1.402       .  A
C1481      H1490   1.082       .  S
C1482      C1485   1.430       .  S
C1482      C1483   1.397       .  A
C1483      C1484   1.393       .  A
C1483      H1491   1.085       .  S
C1484      H1492   1.082       .  S
C1485      C1486   1.200       .  T
C1487      C1488   1.199       .  T
C1493      C1501   1.450       .  S
C1493      C1494   1.405       .  A
C1493      C1498   1.401       .  A
C1494      C1495   1.406       .  A
C1494      H1503   1.083       .  S
C1495      C1496   1.404       .  A
C1495      H1504   1.083       .  S
C1496      C1499   1.449       .  S
C1496      C1497   1.402       .  A
C1497      C1498   1.399       .  A
C1497      H1505   1.084       .  S
C1498      H1506   1.083       .  S
C1499      C1500   1.211       .  T
C1501      C1502   1.212       .  T
C1507      C1515   1.456       .  S
C1507      C1508   1.405       .  A
C1507      C1512   1.404       .  A
C1508      C1509   1.406       .  A
C1508      H1517   1.083       .  S
C1509      C1510   1.405       .  A
C1509      H1518   1.084       .  S
C1510      C1513   1.456       .  S
C1510      C1511   1.404       .  A
C1511      C1512   1.405       .  A
C1511      H1519   1.083       .  S
C1512      H1520   1.083       .  S
C1513      C1514   1.215       .  T
C1515      C1516   1.216       .  T
C1521      C1529   1.458       .  S
C1521      C1522   1.405       .  A
C1521      C1526   1.404       .  A
C1522      C1523   1.406       .  A
C1522      H1531   1.082       .  S
C1523      C1524   1.404       .  A
C1523      H1532   1.084       .  S
C1524      C1527   1.457       .  S
C1524      C1525   1.405       .  A
C1525      C1526   1.406       .  A
C1525      H1533   1.083       .  S
C1526      H1534   1.084       .  S
C1527      C1528   1.216       .  T
C1529      C1530   1.217       .  T
C1535      C1543   1.457       .  S
C1535      C1536   1.404       .  A
C1535      C1540   1.404       .  A
C1536      C1537   1.407       .  A
C1536      H1545   1.084       .  S
C1537      C1538   1.405       .  A
C1537      H1546   1.083       .  S
C1538      C1541   1.459       .  S
C1538      C1539   1.404       .  A
C1539      C1540   1.405       .  A
C1539      H1547   1.084       .  S
C1540      H1548   1.083       .  S
C1541      C1542   1.217       .  T
C1543      C1544   1.216       .  T
C1549      C1557   1.463       .  S
C1549      C1550   1.405       .  A
C1549      C1554   1.406       .  A
C1550      C1551   1.408       .  A
C1550      H1559   1.084       .  S
C1551      C1552   1.406       .  A
C1551      H1560   1.082       .  S
C1552      C1555   1.464       .  S
C1552      C1553   1.406       .  A
C1553      C1554   1.409       .  A
C1553      H1561   1.084       .  S
C1554      H1562   1.082       .  S
C1555      C1556   1.221       .  T
C1557      C1558   1.219       .  T
C1563      C1571   1.461       .  S
C1563      C1564   1.405       .  A
C1563      C1568   1.405       .  A
C1564      C1565   1.408       .  A
C1564      H1573   1.084       .  S
C1565      C1566   1.405       .  A
C1565      H1574   1.083       .  S
C1566      C1569   1.462       .  S
C1566      C1567   1.405       .  A
C1567      C1568   1.407       .  A
C1567      H1575   1.084       .  S
C1568      H1576   1.083       .  S
C1569      C1570   1.219       .  T
C1571      C1572   1.219       .  T
C1577      C1585   1.464       .  S
C1577      C1578   1.406       .  A
C1577      C1582   1.405       .  A
C1578      C1579   1.408       .  A
C1578      H1587   1.081       .  S
C1579      C1580   1.405       .  A
C1579      H1588   1.086       .  S
C1580      C1583   1.464       .  S
C1580      C1581   1.406       .  A
C1581      C1582   1.408       .  A
C1581      H1589   1.081       .  S
C1582      H1590   1.085       .  S
C1583      C1584   1.220       .  T
C1585      C1586   1.220       .  T
C1591      C1599   1.457       .  S
C1591      C1592   1.403       .  A
C1591      C1596   1.406       .  A
C1592      C1593   1.406       .  A
C1592      H1601   1.085       .  S
C1593      C1594   1.405       .  A
C1593      H1602   1.082       .  S
C1594      C1597   1.458       .  S
C1594      C1595   1.404       .  A
C1595      C1596   1.406       .  A
C1595      H1603   1.085       .  S
C1596      H1604   1.082       .  S
C1597      C1598   1.217       .  T
C1599      C1600   1.216       .  T
C1605      C1613   1.470       .  S
C1605      C1606   1.407       .  A
C1605      C1610   1.407       .  A
C1606      C1607   1.411       .  A
C1606      H1615   1.082       .  S
C1607      C1608   1.407       .  A
C1607      H1616   1.084       .  S
C1608      C1611   1.470       .  S
C1608      C1609   1.407       .  A
C1609      C1610   1.411       .  A
C1609      H1617   1.082       .  S
C1610      H1618   1.084       .  S
C1611      C1612   1.224       .  T
C1613      C1614   1.224       .  T
C1619      C1627   1.464       .  S
C1619      C1620   1.406       .  A
C1619      C1624   1.406       .  A
C1620      C1621   1.408       .  A
C1620      H1629   1.081       .  S
C1621      C1622   1.405       .  A
C1621      H1630   1.086       .  S
C1622      C1625   1.463       .  S
C1622      C1623   1.406       .  A
C1623      C1624   1.409       .  A
C1623      H1631   1.081       .  S
C1624      H1632   1.085       .  S
C1625      C1626   1.220       .  T
C1627      C1628   1.221       .  T
C1633      C1641   1.454       .  S
C1633      C1634   1.405       .  A
C1633      C1638   1.403       .  A
C1634      C1635   1.407       .  A
C1634      H1643   1.082       .  S
C1635      C1636   1.405       .  A
C1635      H1644   1.085       .  S
C1636      C1639   1.455       .  S
C1636      C1637   1.403       .  A
C1637      C1638   1.403       .  A
C1637      H1645   1.082       .  S
C1638      H1646   1.085       .  S
C1639      C1640   1.215       .  T
C1641      C1642   1.214       .  T
C1647      C1655   1.457       .  S
C1647      C1648   1.404       .  A
C1647      C1652   1.405       .  A
C1648      C1649   1.405       .  A
C1648      H1657   1.083       .  S
C1649      C1650   1.404       .  A
C1649      H1658   1.083       .  S
C1650      C1653   1.457       .  S
C1650      C1651   1.405       .  A
C1651      C1652   1.407       .  A
C1651      H1659   1.083       .  S
C1652      H1660   1.083       .  S
C1653      C1654   1.216       .  T
C1655      C1656   1.216       .  T
C1661      C1669   1.466       .  S
C1661      C1662   1.405       .  A
C1661      C1666   1.407       .  A
C1662      C1663   1.407       .  A
C1662      H1671   1.084       .  S
C1663      C1664   1.404       .  A
C1663      H1672   1.083       .  S
C1664      C1667   1.466       .  S
C1664      C1665   1.408       .  A
C1665      C1666   1.411       .  A
C1665      H1673   1.084       .  S
C1666      H1674   1.083       .  S
C1667      C1668   1.222       .  T
C1669      C1670   1.222       .  T
C1675      C1683   1.460       .  S
C1675      C1676   1.405       .  A
C1675      C1680   1.405       .  A
C1676      C1677   1.408       .  A
C1676      H1685   1.082       .  S
C1677      C1678   1.406       .  A
C1677      H1686   1.084       .  S
C1678      C1681   1.460       .  S
C1678      C1679   1.404       .  A
C1679      C1680   1.406       .  A
C1679      H1687   1.082       .  S
C1680      H1688   1.084       .  S
C1681      C1682   1.218       .  T
C1683      C1684   1.218       .  T
C1689      C1697   1.456       .  S
C1689      C1690   1.405       .  A
C1689      C1694   1.403       .  A
C1690      C1691   1.407       .  A
C1690      H1699   1.084       .  S
C1691      C1692   1.405       .  A
C1691      H1700   1.083       .  S
C1692      C1695   1.456       .  S
C1692      C1693   1.403       .  A
C1693      C1694   1.403       .  A
C1693      H1701   1.083       .  S
C1694      H1702   1.083       .  S
C1695      C1696   1.215       .  T
C1697      C1698   1.215       .  T
C1703      C1711   1.457       .  S
C1703      C1704   1.406       .  A
C1703      C1708   1.403       .  A
C1704      C1705   1.407       .  A
C1704      H1713   1.082       .  S
C1705      C1706   1.404       .  A
C1705      H1714   1.084       .  S
C1706      C1709   1.456       .  S
C1706      C1707   1.404       .  A
C1707      C1708   1.404       .  A
C1707      H1715   1.083       .  S
C1708      H1716   1.084       .  S
C1709      C1710   1.215       .  T
C1711      C1712   1.216       .  T
C1717      C1725   1.462       .  S
C1717      C1718   1.406       .  A
C1717      C1722   1.404       .  A
C1718      C1719   1.409       .  A
C1718      H1727   1.085       .  S
C1719      C1720   1.406       .  A
C1719      H1728   1.082       .  S
C1720      C1723   1.464       .  S
C1720      C1721   1.405       .  A
C1721      C1722   1.407       .  A
C1721      H1729   1.084       .  S
C1722      H1730   1.082       .  S
C1723      C1724   1.221       .  T
C1725      C1726   1.219       .  T
C1731      C1739   1.454       .  S
C1731      C1732   1.404       .  A
C1731      C1736   1.403       .  A
C1732      C1733   1.406       .  A
C1732      H1741   1.083       .  S
C1733      C1734   1.405       .  A
C1733      H1742   1.083       .  S
C1734      C1737   1.454       .  S
C1734      C1735   1.403       .  A
C1735      C1736   1.403       .  A
C1735      H1743   1.083       .  S
C1736      H1744   1.083       .  S
C1737      C1738   1.214       .  T
C1739      C1740   1.214       .  T
