geometry optimzed in LAMMPS
_audit_creation_date              2020-11-30 
_audit_creation_method            'lammps2cif' 
_symmetry_space_group_name_H-M    'P1' 
_symmetry_Int_Tables_number       1 
_symmetry_cell_setting            triclinic 
loop_ 
_symmetry_equiv_pos_as_xyz 
  x,y,z 
_cell_length_a                    43.58919029 
_cell_length_b                    42.87159526506765 
_cell_length_c                    30.94536758027967 
_cell_angle_alpha                 88.59739312945908 
_cell_angle_beta                  90.05635190978587 
_cell_angle_gamma                 89.87001007769938 
loop_ 
_atom_site_label 
_atom_site_type_symbol 
_atom_site_fract_x 
_atom_site_fract_y 
_atom_site_fract_z 
_atom_site_charge 
C1          C  0.98637049  0.38126945  0.16325340    -0.02600
C2          C  0.64574710  0.13594551  0.66403825    -0.02600
O3          O  0.69112012  0.16216195  0.31954390    -0.78600
C4          C  0.74946541  0.19253168  0.20753723     0.82500
O5          O  0.62239666  0.17408390  0.20082426    -0.79700
O6          O  0.70365094  0.12848315  0.11735300    -0.81200
O7          O  0.72862315  0.06863887  0.24748319    -0.81000
O8          O  0.69408651  0.11044128  0.32698113    -0.79600
Zn9        Zn  0.69093843  0.17181939  0.25452391     1.55700
O10         O  0.74839784  0.09235777  0.18913991    -0.81000
Cd11       Cd  0.69094621  0.09649396  0.26292537     1.59700
Cd12       Cd  0.64687963  0.13319556  0.19053910     1.59600
O13         O  0.65182463  0.06927696  0.25826713    -0.81000
O14         O  0.68728026  0.13357874  0.22229916    -1.91500
Cd15       Cd  0.72103279  0.13116542  0.17908460     1.59900
O16         O  0.62135446  0.09497715  0.21149992    -0.80900
O17         O  0.74927823  0.16945121  0.18241253    -0.79600
C18         C  0.63008398  0.19882069  0.22016379     0.82900
C19         C  0.69259241  0.13743382  0.34343077     0.82600
O20         O  0.72920925  0.19571938  0.23685148    -0.78600
C21         C  0.74854168  0.07015773  0.21722385     0.83400
O22         O  0.65536510  0.20068440  0.24068417    -0.78600
C23         C  0.62667621  0.07186859  0.23727301     0.83500
C24         C  0.67693923  0.12787988  0.10057919     0.83900
O25         O  0.65277936  0.12972950  0.12365754    -0.81100
C26         C  0.68780650  0.12455465  0.77471736     0.86400
C27         C  0.70689864  0.15401060  0.76821165    -0.53800
C28         C  0.71709810  0.15938879  0.72713189     0.09300
C29         C  0.70579697  0.13507124  0.69479123     0.20300
C30         C  0.66133808  0.12861561  0.74263406    -0.54600
C31         C  0.67024735  0.13342937  0.70016324     0.09400
C32         C  0.70728593  0.09821130  0.75573520    -0.54100
C33         C  0.71728379  0.10393968  0.71458703     0.10000
H34         H  0.71380400  0.16833331  0.79504478     0.14500
H35         H  0.71428453  0.13964639  0.66149390     0.00300
H36         H  0.63743550  0.12640149  0.75184460     0.14800
H37         H  0.71452699  0.07764136  0.77427497     0.14600
O38         O  0.93902397  0.36117389  0.82370129    -0.78600
C39         C  0.88263502  0.32262123  0.71823287     0.82500
O40         O  0.01068704  0.34145603  0.70915948    -0.79700
O41         O  0.92660068  0.37663517  0.61669705    -0.81200
O42         O  0.90424430  0.44893676  0.73348300    -0.81000
O43         O  0.94159552  0.41300595  0.81889291    -0.79600
Zn44       Zn  0.94142069  0.34682193  0.76108607     1.55700
O45         O  0.88387736  0.42257667  0.67948838    -0.81000
Cd46       Cd  0.94221621  0.42206758  0.75227758     1.59700
Cd47       Cd  0.98530180  0.38018920  0.68721973     1.59600
O48         O  0.97983577  0.44929706  0.73742908    -0.81000
O49         O  0.94516151  0.38225933  0.72023949    -1.91500
Cd50       Cd  0.91034901  0.38222991  0.67826575     1.59900
O51         O  0.01073486  0.42114632  0.69587201    -0.80900
O52         O  0.88182923  0.34489353  0.69029625    -0.79600
C53         C  0.00433954  0.31930345  0.73606930     0.82900
C54         C  0.94022492  0.38770589  0.84155696     0.82600
O55         O  0.90372420  0.32082419  0.74691780    -0.78600
C56         C  0.88426514  0.44626621  0.70360478     0.83400
O57         O  0.97901237  0.31883006  0.75680957    -0.78600
C58         C  0.00446369  0.44618169  0.71573317     0.83500
C59         C  0.95269706  0.37362700  0.59872412     0.83900
O60         O  0.97759989  0.37472594  0.62050490    -0.81100
C61         C  0.94211574  0.37218136  0.27291892     0.86400
C62         C  0.92330976  0.34564763  0.25377342    -0.53800
C63         C  0.91442660  0.35064706  0.21204053     0.09300
C64         C  0.92602481  0.38150342  0.19185505     0.20300
C65         C  0.96946492  0.37582642  0.24205392    -0.54600
C66         C  0.96141385  0.37990516  0.19891784     0.09400
C67         C  0.92316690  0.40168680  0.26443934    -0.54100
C68         C  0.91404048  0.40644824  0.22277970     0.10000
H69         H  0.91569123  0.32542670  0.27270963     0.14500
H70         H  0.91818835  0.38550516  0.15809078     0.00300
H71         H  0.99317559  0.37397274  0.25242020     0.14800
H72         H  0.91528233  0.41640610  0.29033589     0.14600
C73         C  0.48713246  0.38330836  0.24510088    -0.02600
C74         C  0.14587633  0.13028035  0.75411275    -0.02600
O75         O  0.19128083  0.10042240  0.09883222    -0.78600
C76         C  0.24951890  0.06995105  0.20971763     0.82500
O77         O  0.12159130  0.09139008  0.21599115    -0.79700
O78         O  0.20619907  0.13266449  0.29945171    -0.81200
O79         O  0.22947910  0.19421946  0.16860848    -0.81000
O80         O  0.19384545  0.15212242  0.09082915    -0.79600
Zn81       Zn  0.19050571  0.09138905  0.16381268     1.55700
O82         O  0.24974298  0.17112853  0.22719227    -0.81000
Cd83       Cd  0.19125927  0.16674317  0.15456724     1.59700
Cd84       Cd  0.14766615  0.13108120  0.22824222     1.59600
O85         O  0.15231937  0.19441227  0.15954737    -0.81000
O86         O  0.18774420  0.12994341  0.19554606    -1.91500
Cd87       Cd  0.22260086  0.13214892  0.23729974     1.59900
O88         O  0.12266450  0.17055777  0.20893293    -0.80900
O89         O  0.25106488  0.09393422  0.23303218    -0.79600
C90         C  0.12846427  0.06661439  0.19603930     0.82900
C91         C  0.19260982  0.12500635  0.07472768     0.82600
O92         O  0.22801281  0.06646793  0.18227739    -0.78600
C93         C  0.24975863  0.19292697  0.19848097     0.83400
O94         O  0.15394577  0.06386592  0.17633209    -0.78600
C95         C  0.12767870  0.19293638  0.18179648     0.83500
C96         C  0.17992359  0.13234452  0.31748005     0.83900
O97         O  0.15518424  0.13189236  0.29528997    -0.81100
C98         C  0.19104651  0.13281706  0.64489858     0.86400
C99         C  0.20819338  0.10295758  0.65848310    -0.53800
C100        C  0.21687644  0.10144199  0.70071707     0.09300
C101        C  0.20693343  0.12990384  0.72662239     0.20300
C102        C  0.16375076  0.13396700  0.67597727    -0.54600
C103        C  0.17146935  0.13220209  0.71927619     0.09400
C104        C  0.21170239  0.15958919  0.65900399    -0.54100
C105        C  0.22073477  0.15794369  0.70110751     0.10000
H106        H  0.21479839  0.08529490  0.63563102     0.14500
H107        H  0.21485692  0.12824953  0.76058413     0.00300
H108        H  0.14009948  0.13564149  0.66542984     0.14800
H109        H  0.22063756  0.17715819  0.63646185     0.14600
O110        O  0.40660298  0.31733995  0.67288440    -0.78600
C111        C  0.44105098  0.37985973  0.56683164     0.82500
O112        O  0.51202671  0.34621994  0.71231421    -0.79700
O113        O  0.47938435  0.44877774  0.65261805    -0.81200
O114        O  0.38142815  0.41853634  0.71820339    -0.81000
O115        O  0.38621209  0.34132922  0.72885840    -0.79600
Zn116      Zn  0.44365492  0.34469951  0.65555386     1.55700
O117        O  0.40363221  0.44718871  0.66578837    -0.81000
Cd118      Cd  0.41128167  0.38219700  0.73012716     1.59700
Cd119      Cd  0.48583738  0.38621424  0.72119320     1.59600
O120        O  0.42744738  0.38844063  0.79170448    -0.81000
O121        O  0.44584821  0.38290535  0.68814793    -1.91500
Cd122      Cd  0.44126595  0.42021746  0.64812546     1.59900
O123        O  0.47837531  0.39116357  0.78769842    -0.80900
O124        O  0.43823850  0.40666222  0.58363297    -0.79600
C125        C  0.50570495  0.32153430  0.69190389     0.82900
C126        C  0.38681819  0.31849020  0.70330366     0.82600
O127        O  0.44353332  0.35505369  0.59047664    -0.78600
C128        C  0.38235957  0.44268985  0.69355151     0.83400
O129        O  0.48102487  0.31885123  0.67013197    -0.78600
C130        C  0.45354809  0.39191623  0.80952592     0.83500
C131        C  0.50445019  0.44777713  0.67394256     0.83900
O132        O  0.51062217  0.42524361  0.70029961    -0.81100
C133        C  0.44284546  0.39113033  0.13506965     0.86400
C134        C  0.42335399  0.41730985  0.15408986    -0.53800
C135        C  0.41462180  0.41216163  0.19582667     0.09300
C136        C  0.42694753  0.38154706  0.21605699     0.20300
C137        C  0.47026108  0.38825476  0.16610065    -0.54600
C138        C  0.46227890  0.38405709  0.20921636     0.09400
C139        C  0.42463773  0.36121427  0.14355429    -0.54100
C140        C  0.41565497  0.35626066  0.18521098     0.10000
H141        H  0.41542704  0.43746873  0.13519449     0.14500
H142        H  0.41912453  0.37735832  0.24974177     0.00300
H143        H  0.49391157  0.39075200  0.15581414     0.14800
H144        H  0.41711730  0.34632174  0.11765852     0.14600
C145        C  0.45413488  0.39713562  0.85683341    -0.01400
C146        C  0.42680061  0.40552254  0.87735408    -0.09400
C147        C  0.42535291  0.40816861  0.92195498    -0.18200
C148        C  0.45126970  0.40200299  0.94823324     0.04200
C149        C  0.47960863  0.39575008  0.92747057     0.18400
C150        C  0.48085780  0.39335692  0.88199369    -0.19600
C151        C  0.50619203  0.39122972  0.95244398    -0.20900
C152        C  0.50495693  0.39176377  0.99756031    -0.19500
C153        C  0.47697945  0.39606811  0.01899204     0.19700
C154        C  0.44978080  0.40122795  0.99434808     0.01900
C155        C  0.42183006  0.40379528  0.01677957    -0.14200
C156        C  0.42076257  0.40099786  0.06145489    -0.11900
C157        C  0.44739373  0.39624988  0.08640020     0.01400
C158        C  0.47571809  0.39414338  0.06475672    -0.24100
H159        H  0.40605310  0.40981179  0.85881687     0.09400
H160        H  0.40344229  0.41499139  0.93477150     0.13000
H161        H  0.50233663  0.38758023  0.86644251     0.11700
H162        H  0.52803705  0.38687432  0.93700348     0.12900
H163        H  0.52589365  0.38785270  0.01583096     0.11900
H164        H  0.40001855  0.40670244  0.00079442     0.09000
H165        H  0.39846732  0.40192092  0.07685783     0.12300
H166        H  0.49654817  0.38970736  0.08291778     0.14100
C167        C  0.24734432  0.17681259  0.71487246    -0.01400
C168        C  0.24346793  0.20277563  0.74076164    -0.09400
C169        C  0.26699898  0.22491480  0.74432456    -0.18200
C170        C  0.29499854  0.22181615  0.72135047     0.04200
C171        C  0.29929471  0.19427057  0.69741478     0.18400
C172        C  0.27568551  0.17217403  0.69463389    -0.19600
C173        C  0.32649427  0.18965486  0.67440261    -0.20900
C174        C  0.34903913  0.21253638  0.67273366    -0.19500
C175        C  0.34500652  0.24066387  0.69403937     0.19700
C176        C  0.31829233  0.24546068  0.71955110     0.01900
C177        C  0.31568276  0.27415569  0.74081567    -0.14200
C178        C  0.33804921  0.29735737  0.73580081    -0.11900
C179        C  0.36382236  0.29301047  0.70938187     0.01400
C180        C  0.36728657  0.26429072  0.68912200    -0.24100
H181        H  0.22161053  0.20684696  0.75630000     0.09400
H182        H  0.26214485  0.24479421  0.76385730     0.13000
H183        H  0.27858985  0.15214419  0.67424268     0.11700
H184        H  0.32998580  0.16853191  0.65647652     0.12900
H185        H  0.36946944  0.20850222  0.65371214     0.11900
H186        H  0.29640117  0.27953639  0.76110911     0.09000
H187        H  0.33478732  0.31913787  0.75222067     0.12300
H188        H  0.38727967  0.26035580  0.66914293     0.14100
C189        C  0.35819951  0.46628033  0.69840751    -0.01400
C190        C  0.36583156  0.49719567  0.70683857    -0.09400
C191        C  0.34288858  0.01922499  0.71449938    -0.18200
C192        C  0.31148167  0.01099414  0.71267493     0.04200
C193        C  0.30405131  0.47963240  0.70297793     0.18400
C194        C  0.32735884  0.45750128  0.69719103    -0.19600
C195        C  0.27342785  0.47070990  0.69794170    -0.20900
C196        C  0.24999728  0.99262097  0.70022432    -0.19500
C197        C  0.25655236  0.02369335  0.70937619     0.19700
C198        C  0.28720293  0.03302720  0.71792471     0.01900
C199        C  0.29217104  0.06422704  0.73010125    -0.14200
C200        C  0.26820000  0.08596450  0.72910529    -0.11900
C201        C  0.23886725  0.07726307  0.71571773     0.01400
C202        C  0.23283542  0.04586210  0.70789574    -0.24100
H203        H  0.38967713  0.50417613  0.70834940     0.09400
H204        H  0.35038080  0.04265816  0.72059523     0.13000
H205        H  0.32153793  0.43349270  0.69057575     0.11700
H206        H  0.26763784  0.44685201  0.69053872     0.12900
H207        H  0.22661655  0.98530050  0.69427208     0.11900
H208        H  0.31444298  0.07263436  0.73947210     0.09000
H209        H  0.27313643  0.11009582  0.73582618     0.12300
H210        H  0.20994432  0.03909135  0.69806414     0.14100
C211        C  0.17889211  0.13243990  0.36554000    -0.01400
C212        C  0.15122965  0.13060213  0.38862689    -0.09400
C213        C  0.15111717  0.13072442  0.43402512    -0.18200
C214        C  0.17883710  0.13269992  0.45777391     0.04200
C215        C  0.20670352  0.13423235  0.43396445     0.18400
C216        C  0.20644080  0.13415178  0.38876336    -0.19600
C217        C  0.23492702  0.13583322  0.45524765    -0.20900
C218        C  0.23624285  0.13583651  0.49992721    -0.19500
C219        C  0.20935564  0.13451321  0.52444195     0.19700
C220        C  0.18019134  0.13315009  0.50406614     0.01900
C221        C  0.15394252  0.13235232  0.53105978    -0.14200
C222        C  0.15668450  0.13277063  0.57629758    -0.11900
C223        C  0.18569767  0.13378209  0.59608821     0.01400
C224        C  0.21174236  0.13447385  0.56945187    -0.24100
H225        H  0.12959564  0.12903666  0.37159590     0.09400
H226        H  0.12905990  0.12917492  0.44966141     0.13000
H227        H  0.22809118  0.13546333  0.37158389     0.11700
H228        H  0.25620808  0.13698664  0.43717993     0.12900
H229        H  0.25851191  0.13697106  0.51544380     0.11900
H230        H  0.13100392  0.13141243  0.51809312     0.09000
H231        H  0.13593212  0.13178099  0.59525573     0.12300
H232        H  0.23434050  0.13488540  0.58418977     0.14100
C233        C  0.39035768  0.33402684  0.19471310    -0.01400
C234        C  0.39335961  0.30954925  0.22511326    -0.09400
C235        C  0.37060278  0.28642419  0.22870907    -0.18200
C236        C  0.34415863  0.28732588  0.20179325     0.04200
C237        C  0.34101125  0.31306184  0.17229353     0.18400
C238        C  0.36378411  0.33595727  0.16931120    -0.19600
C239        C  0.31551679  0.31554497  0.14495092    -0.20900
C240        C  0.29309480  0.29265214  0.14553207    -0.19500
C241        C  0.29553288  0.26669086  0.17353904     0.19700
C242        C  0.32092510  0.26364522  0.20237403     0.01900
C243        C  0.32195953  0.23689072  0.22999161    -0.14200
C244        C  0.29888651  0.21421278  0.22878636    -0.11900
C245        C  0.27405332  0.21724966  0.19997804     0.01400
C246        C  0.27263754  0.24368877  0.17255043    -0.24100
H247        H  0.41380504  0.30768949  0.24494566     0.09400
H248        H  0.37457762  0.26785562  0.25217620     0.13000
H249        H  0.36128172  0.35513072  0.14600190     0.11700
H250        H  0.31306896  0.33520979  0.12250618     0.12900
H251        H  0.27377958  0.29517346  0.12362509     0.11900
H252        H  0.34035213  0.23281334  0.25276129     0.09000
H253        H  0.30067627  0.19404045  0.25040877     0.12300
H254        H  0.25356391  0.24647838  0.15025530     0.14100
C255        C  0.39088259  0.43195893  0.21487416    -0.01400
C256        C  0.36055687  0.42158973  0.21487298    -0.09400
C257        C  0.33641461  0.44266799  0.21929281    -0.18200
C258        C  0.34212683  0.47489621  0.22380198     0.04200
C259        C  0.37309816  0.48464315  0.22841820     0.18400
C260        C  0.39717645  0.46320961  0.22329008    -0.19600
C261        C  0.37979387  0.01594330  0.23598269    -0.20900
C262        C  0.35643147  0.03807131  0.23732140    -0.19500
C263        C  0.32596107  0.02960451  0.22941751     0.19700
C264        C  0.31836279  0.99788293  0.22239115     0.01900
C265        C  0.28763477  0.99079107  0.21176557    -0.14200
C266        C  0.26555977  0.01426636  0.20758472    -0.11900
C267        C  0.27308302  0.04538187  0.21492615     0.01400
C268        C  0.30318826  0.05284565  0.22679298    -0.24100
H269        H  0.35543494  0.39745133  0.20837239     0.09400
H270        H  0.31357637  0.43316907  0.21796807     0.13000
H271        H  0.42079806  0.47112694  0.22326468     0.11700
H272        H  0.40331464  0.02344524  0.24020870     0.12900
H273        H  0.36239325  0.06218503  0.24278494     0.11900
H274        H  0.28018351  0.46748101  0.20491415     0.09000
H275        H  0.24237452  0.00800349  0.19865238     0.12300
H276        H  0.30918479  0.07698184  0.23215347     0.14100
C277        C  0.15885834  0.12422073  0.80057028    -0.01400
C278        C  0.14925799  0.09885008  0.82728892    -0.09400
C279        C  0.15785990  0.09606823  0.87065891    -0.18200
C280        C  0.17550065  0.11924094  0.89043865     0.04200
C281        C  0.18528197  0.14496671  0.86416226     0.18400
C282        C  0.17734652  0.14698514  0.81995336    -0.19600
C283        C  0.20173954  0.16929042  0.88264941    -0.20900
C284        C  0.20729741  0.16936094  0.92700536    -0.19500
C285        C  0.19718841  0.14474437  0.95395124     0.19700
C286        C  0.18220167  0.11871847  0.93582155     0.01900
C287        C  0.17388726  0.09372338  0.96415571    -0.14200
C288        C  0.17847393  0.09543152  0.00877795    -0.11900
C289        C  0.19134135  0.12205146  0.02690654     0.01400
C290        C  0.20128107  0.14635746  0.99906205    -0.24100
H291        H  0.13350560  0.08144366  0.81623066     0.09400
H292        H  0.14884517  0.07621811  0.88845449     0.13000
H293        H  0.18427247  0.16729699  0.80083325     0.11700
H294        H  0.20946840  0.18895613  0.86288379     0.12900
H295        H  0.21918506  0.18907634  0.94042903     0.11900
H296        H  0.16356371  0.07260374  0.95289529     0.09000
H297        H  0.17089453  0.07614830  0.02934678     0.12300
H298        H  0.21180703  0.16683249  0.01257466     0.14100
C299        C  0.47373987  0.37753248  0.29149664    -0.01400
C300        C  0.48355851  0.35249539  0.31873658    -0.09400
C301        C  0.47545847  0.35038447  0.36231834    -0.18200
C302        C  0.45816271  0.37395331  0.38193802     0.04200
C303        C  0.44804917  0.39936451  0.35522608     0.18400
C304        C  0.45511683  0.40050768  0.31059324    -0.19600
C305        C  0.43220686  0.42420752  0.37370956    -0.20900
C306        C  0.42731930  0.42487107  0.41827534    -0.19500
C307        C  0.43735226  0.40028644  0.44553148     0.19700
C308        C  0.45198554  0.37396512  0.42749059     0.01900
C309        C  0.46028804  0.34903316  0.45599573    -0.14200
C310        C  0.45569649  0.35081059  0.50058270    -0.11900
C311        C  0.44284543  0.37746856  0.51877136     0.01400
C312        C  0.43329979  0.40201870  0.49077261    -0.24100
H313        H  0.49914496  0.33481477  0.30790384     0.09400
H314        H  0.48470377  0.33072147  0.38040010     0.13000
H315        H  0.44777463  0.42050076  0.29104040     0.11700
H316        H  0.42437585  0.44376646  0.35372674     0.12900
H317        H  0.41579701  0.44489993  0.43156118     0.11900
H318        H  0.47042818  0.32774322  0.44486911     0.09000
H319        H  0.46309211  0.33137803  0.52109078     0.12300
H320        H  0.42290985  0.42263162  0.50420016     0.14100
C321        C  0.02566682  0.47309241  0.71346348    -0.01400
C322        C  0.01340383  0.50330518  0.71218061    -0.09400
C323        C  0.03238034  0.52938408  0.71322435    -0.18200
C324        C  0.06457470  0.02615954  0.71651211     0.04200
C325        C  0.07706518  0.99546040  0.71771214     0.18400
C326        C  0.05762429  0.46926344  0.71522568    -0.19600
C327        C  0.10875423  0.99117954  0.72291108    -0.20900
C328        C  0.12810875  0.01664490  0.72855080    -0.19500
C329        C  0.11636428  0.04710875  0.72826633     0.19700
C330        C  0.08462284  0.05227466  0.72067583     0.01900
C331        C  0.07424916  0.08341821  0.71782190    -0.14200
C332        C  0.09373624  0.10817123  0.72667459    -0.11900
C333        C  0.12443557  0.10315617  0.73972993     0.01400
C334        C  0.13595906  0.07240867  0.73670853    -0.24100
H335        H  0.98878820  0.50681496  0.71072999     0.09400
H336        H  0.02099533  0.55171155  0.71301549     0.13000
H337        H  0.06722982  0.44591263  0.71675349     0.11700
H338        H  0.11853707  0.96791190  0.72385403     0.12900
H339        H  0.15237251  0.01244246  0.73379417     0.11900
H340        H  0.05112255  0.08951089  0.70857802     0.09000
H341        H  0.08415704  0.13130243  0.72279658     0.12300
H342        H  0.16001591  0.06803573  0.74350773     0.14100
C343        C  0.02660657  0.29314171  0.74302020    -0.01400
C344        C  0.02019752  0.26880504  0.77280738    -0.09400
C345        C  0.04017789  0.24340366  0.77823228    -0.18200
C346        C  0.06748508  0.24127670  0.75378196     0.04200
C347        C  0.07410274  0.26610175  0.72392411     0.18400
C348        C  0.05391668  0.29168737  0.71907107    -0.19600
C349        C  0.10058683  0.26499335  0.69844349    -0.20900
C350        C  0.12024862  0.23940202  0.70108735    -0.19500
C351        C  0.11413474  0.21428658  0.72954528     0.19700
C352        C  0.08806189  0.21514917  0.75701869     0.01900
C353        C  0.08371345  0.18973017  0.78626278    -0.14200
C354        C  0.10317130  0.16376872  0.78612016    -0.11900
C355        C  0.12752685  0.16151038  0.75636321     0.01400
C356        C  0.13370005  0.18806950  0.72991462    -0.24100
H357        H  0.99936684  0.26914576  0.79183941     0.09400
H358        H  0.03330420  0.22552526  0.80129721     0.13000
H359        H  0.05926262  0.31023853  0.69587258     0.11700
H360        H  0.10587806  0.28384447  0.67570990     0.12900
H361        H  0.14020949  0.23907871  0.68023257     0.11900
H362        H  0.06521663  0.18899833  0.80934707     0.09000
H363        H  0.09825718  0.14443319  0.80819612     0.12300
H364        H  0.15339147  0.18858803  0.70872800     0.14100
C365        C  0.95310069  0.36853468  0.55128775    -0.01400
C366        C  0.92547639  0.36126570  0.53063123    -0.09400
C367        C  0.92395687  0.35831508  0.48607949    -0.18200
C368        C  0.95012003  0.36292707  0.45985042     0.04200
C369        C  0.97859209  0.36850811  0.48068717     0.18400
C370        C  0.97989976  0.37122953  0.52614904    -0.19600
C371        C  0.00529940  0.37198496  0.45579965    -0.20900
C372        C  0.00409852  0.37115184  0.41070202    -0.19500
C373        C  0.97608524  0.36731502  0.38916774     0.19700
C374        C  0.94877116  0.36288986  0.41370872     0.01900
C375        C  0.92091777  0.35999103  0.39106289    -0.14200
C376        C  0.91997921  0.36231860  0.34635416    -0.11900
C377        C  0.94663968  0.36705825  0.32158861     0.01400
C378        C  0.97493027  0.36895765  0.34338270    -0.24100
H379        H  0.90453831  0.35804369  0.54901686     0.09400
H380        H  0.90173019  0.35257219  0.47330264     0.13000
H381        H  0.00155389  0.37628917  0.54171884     0.11700
H382        H  0.02722572  0.37584301  0.47129100     0.12900
H383        H  0.02513082  0.37438119  0.39250730     0.11900
H384        H  0.89906411  0.35700508  0.40683115     0.09000
H385        H  0.89774391  0.36117646  0.33076323     0.12300
H386        H  0.99583313  0.37298094  0.32531214     0.14100
C387        C  0.74293872  0.08550800  0.69742118    -0.01400
C388        C  0.73736934  0.05790477  0.67575264    -0.09400
C389        C  0.76099290  0.03618822  0.66999677    -0.18200
C390        C  0.79072272  0.04121736  0.68713789     0.04200
C391        C  0.79642704  0.07025597  0.70690623     0.18400
C392        C  0.77271446  0.09216198  0.71125917    -0.19600
C393        C  0.82521800  0.07649677  0.72472086    -0.20900
C394        C  0.84805788  0.05382211  0.72564783    -0.19500
C395        C  0.84277467  0.02441882  0.70846403     0.19700
C396        C  0.81442584  0.01797231  0.68767547     0.01900
C397        C  0.81071896  0.48808999  0.66990069    -0.14200
C398        C  0.83358109  0.46525072  0.67439494    -0.11900
C399        C  0.86084358  0.47122292  0.69681905     0.01400
C400        C  0.86546218  0.50114395  0.71297341    -0.24100
H401        H  0.71431776  0.05238413  0.66531412     0.09400
H402        H  0.75487765  0.01504375  0.65400651     0.13000
H403        H  0.77681800  0.11342294  0.72863370     0.11700
H404        H  0.82974480  0.09869354  0.73949085     0.12900
H405        H  0.86975978  0.05905901  0.74094812     0.11900
H406        H  0.79025023  0.48152202  0.65286750     0.09000
H407        H  0.82952639  0.44249172  0.66108207     0.12300
H408        H  0.88669784  0.50628966  0.72960064     0.14100
C409        C  0.74298012  0.18124045  0.71931751    -0.01400
C410        C  0.74325753  0.20259072  0.68446879    -0.09400
C411        C  0.76640419  0.22527278  0.68112274    -0.18200
C412        C  0.78991220  0.22706430  0.71281052     0.04200
C413        C  0.79014827  0.20409542  0.74665080     0.18400
C414        C  0.76713224  0.18151487  0.74924980    -0.19600
C415        C  0.81288760  0.20413781  0.77856640    -0.20900
C416        C  0.83524904  0.22706973  0.77834808    -0.19500
C417        C  0.83539253  0.25056709  0.74625206     0.19700
C418        C  0.81289621  0.25089414  0.71280521     0.01900
C419        C  0.81414126  0.27539191  0.68147704    -0.14200
C420        C  0.83659506  0.29856317  0.68352379    -0.11900
C421        C  0.85864726  0.29813660  0.71666507     0.01400
C422        C  0.85788059  0.27390524  0.74778616    -0.24100
H423        H  0.72499980  0.20243327  0.66069878     0.09400
H424        H  0.76499830  0.24138790  0.65391166     0.13000
H425        H  0.76761598  0.16432510  0.77556949     0.11700
H426        H  0.81313593  0.18651467  0.80429735     0.12900
H427        H  0.85235486  0.22662773  0.80380524     0.11900
H428        H  0.79796508  0.27739953  0.65519463     0.09000
H429        H  0.83666353  0.31691069  0.65883338     0.12300
H430        H  0.87477566  0.27322405  0.77353717     0.14100
C431        C  0.60322737  0.04696637  0.24220569    -0.01400
C432        C  0.57648069  0.04787242  0.21701325    -0.09400
C433        C  0.55522473  0.02357177  0.21929595    -0.18200
C434        C  0.56002729  0.49731708  0.24705460     0.04200
C435        C  0.58671124  0.49692411  0.27353877     0.18400
C436        C  0.60787753  0.02154434  0.27093698    -0.19600
C437        C  0.59242566  0.47162547  0.30187809    -0.20900
C438        C  0.57266137  0.44622071  0.30359369    -0.19500
C439        C  0.54681053  0.44537462  0.27679211     0.19700
C440        C  0.53982424  0.47106166  0.24864719     0.01900
C441        C  0.51321592  0.46903995  0.22281478    -0.14200
C442        C  0.49574088  0.44179742  0.22239194    -0.11900
C443        C  0.50411767  0.41517193  0.24740861     0.01400
C444        C  0.52852098  0.41844238  0.27693819    -0.24100
H445        H  0.57213336  0.06723859  0.19469674     0.09400
H446        H  0.53553749  0.02586824  0.19838710     0.13000
H447        H  0.62835061  0.02058389  0.29085971     0.11700
H448        H  0.61260161  0.47125174  0.32238695     0.12900
H449        H  0.57804800  0.42675204  0.32531386     0.11900
H450        H  0.50541829  0.98797859  0.20203382     0.09000
H451        H  0.47565190  0.44210471  0.20203044     0.12300
H452        H  0.53450388  0.39890170  0.29824541     0.14100
C453        C  0.60952057  0.22634138  0.21842047    -0.01400
C454        C  0.62192432  0.25641074  0.21979408    -0.09400
C455        C  0.60295881  0.28269542  0.21863822    -0.18200
C456        C  0.57067626  0.27970626  0.21701829     0.04200
C457        C  0.55814600  0.24913039  0.21637354     0.18400
C458        C  0.57759043  0.22287830  0.21600188    -0.19600
C459        C  0.52629126  0.24494875  0.21738585    -0.20900
C460        C  0.50665624  0.27042905  0.22086433    -0.19500
C461        C  0.51835245  0.30077813  0.22199100     0.19700
C462        C  0.55039341  0.30588743  0.21811103     0.01900
C463        C  0.56071891  0.33700590  0.21549653    -0.14200
C464        C  0.54057850  0.36183611  0.22145130    -0.11900
C465        C  0.50945219  0.35671763  0.23196314     0.01400
C466        C  0.49830469  0.32600569  0.22828727    -0.24100
H467        H  0.64653450  0.25965355  0.22160321     0.09400
H468        H  0.61419716  0.30499093  0.22054453     0.13000
H469        H  0.56782744  0.19965116  0.21544750     0.11700
H470        H  0.51653121  0.22173538  0.21689743     0.12900
H471        H  0.48217433  0.26633965  0.22316800     0.11900
H472        H  0.58425910  0.34290587  0.20848180     0.09000
H473        H  0.55001936  0.38498331  0.21777259     0.12300
H474        H  0.47403159  0.32160783  0.23302060     0.14100
C475        C  0.67460888  0.12450343  0.05302304    -0.01400
C476        C  0.64812276  0.13298324  0.02969215    -0.09400
C477        C  0.64734252  0.13100378  0.98441708    -0.18200
C478        C  0.67315700  0.12031132  0.96115046     0.04200
C479        C  0.69946524  0.11089275  0.98544635     0.18400
C480        C  0.69988163  0.11300347  0.03049207    -0.19600
C481        C  0.72570120  0.09998648  0.96473767    -0.20900
C482        C  0.72699152  0.09932123  0.92010457    -0.19500
C483        C  0.70195844  0.10923426  0.89504824     0.19700
C484        C  0.67437032  0.11922483  0.91485030     0.01900
C485        C  0.64984818  0.12850941  0.88725771    -0.14200
C486        C  0.65309477  0.12871751  0.84202245    -0.11900
C487        C  0.68080989  0.11953722  0.82279703     0.01400
C488        C  0.70500902  0.11005109  0.85009427    -0.24100
H489        H  0.62818892  0.14179796  0.04636448     0.09400
H490        H  0.62646797  0.13837176  0.96843607     0.13000
H491        H  0.72033836  0.10586538  0.04814556     0.11700
H492        H  0.74568349  0.09254055  0.98319032     0.12900
H493        H  0.74795585  0.09139973  0.90502994     0.11900
H494        H  0.62816730  0.13637317  0.89976208     0.09000
H495        H  0.63422810  0.13743099  0.82249055     0.12300
H496        H  0.72708058  0.10430352  0.83624547     0.14100
C497        C  0.88822794  0.42813462  0.21340772    -0.01400
C498        C  0.89078879  0.45287086  0.18341236    -0.09400
C499        C  0.86785929  0.47592308  0.18062212    -0.18200
C500        C  0.84169641  0.47466759  0.20796619     0.04200
C501        C  0.83882252  0.44850424  0.23673165     0.18400
C502        C  0.86180878  0.42572119  0.23899113    -0.19600
C503        C  0.81350054  0.44559177  0.26424252    -0.20900
C504        C  0.79112037  0.46861256  0.26479227    -0.19500
C505        C  0.79350134  0.49514848  0.23786767     0.19700
C506        C  0.81859513  0.99849184  0.20864850     0.01900
C507        C  0.81962919  0.02581809  0.18219274    -0.14200
C508        C  0.79692702  0.04882132  0.18499011    -0.11900
C509        C  0.77246488  0.04552762  0.21425769     0.01400
C510        C  0.77092283  0.01844102  0.24037473    -0.24100
H511        H  0.91109902  0.45506917  0.16343899     0.09400
H512        H  0.87153373  0.99475012  0.15745664     0.13000
H513        H  0.85972020  0.40641559  0.26214489     0.11700
H514        H  0.81121906  0.42554416  0.28603353     0.12900
H515        H  0.77198507  0.46581751  0.28688493     0.11900
H516        H  0.83778582  0.03016657  0.15921968     0.09000
H517        H  0.79872906  0.06945480  0.16425550     0.12300
H518        H  0.75205114  0.01543203  0.26289119     0.14100
C519        C  0.77373892  0.21625957  0.20212905    -0.01400
C520        C  0.80244218  0.20802810  0.18558092    -0.09400
C521        C  0.82562733  0.23022888  0.18053160    -0.18200
C522        C  0.82063413  0.26168607  0.19140642     0.04200
C523        C  0.79104027  0.27007758  0.20674874     0.18400
C524        C  0.76814782  0.24735984  0.21248055    -0.19600
C525        C  0.78451067  0.30104778  0.21667080    -0.20900
C526        C  0.80704390  0.32380269  0.21305177    -0.19500
C527        C  0.83678894  0.31602419  0.20015049     0.19700
C528        C  0.84404479  0.28494698  0.18865389     0.01900
C529        C  0.87479216  0.27828224  0.17713391    -0.14200
C530        C  0.89767793  0.30088292  0.18051593    -0.11900
C531        C  0.89040227  0.33088536  0.19381461     0.01400
C532        C  0.85981890  0.33873989  0.20156232    -0.24100
H533        H  0.80716703  0.18412958  0.17706880     0.09400
H534        H  0.84713977  0.22203720  0.16794706     0.13000
H535        H  0.74576550  0.25397497  0.22455156     0.11700
H536        H  0.76191443  0.30764930  0.22788442     0.12900
H537        H  0.80143320  0.34746724  0.22182700     0.11900
H538        H  0.88222363  0.25541252  0.16791362     0.09000
H539        H  0.92140857  0.29440207  0.17530629     0.12300
H540        H  0.85440851  0.36182926  0.21283846     0.14100
C541        C  0.62698691  0.10514147  0.66083118    -0.01400
C542        C  0.60218623  0.10402896  0.63165669    -0.09400
C543        C  0.58271669  0.07825059  0.63048397    -0.18200
C544        C  0.58765065  0.05185573  0.65785023     0.04200
C545        C  0.61431077  0.05153370  0.68424904     0.18400
C546        C  0.63384591  0.07757878  0.68489301    -0.19600
C547        C  0.62109272  0.02537940  0.71057082    -0.20900
C548        C  0.60143311  0.99987166  0.71225174    -0.19500
C549        C  0.57438402  0.99990149  0.68783315     0.19700
C550        C  0.56715302  0.02582281  0.66006793     0.01900
C551        C  0.53936087  0.02483554  0.63655758    -0.14200
C552        C  0.51954258  0.49938905  0.64074446    -0.11900
C553        C  0.52657393  0.47394199  0.66838356     0.01400
C554        C  0.55426009  0.47432711  0.69159489    -0.24100
H555        H  0.59699671  0.12406479  0.61089730     0.09400
H556        H  0.56383851  0.07987179  0.60804846     0.13000
H557        H  0.65422273  0.07600834  0.70469258     0.11700
H558        H  0.64154963  0.02482363  0.73052413     0.12900
H559        H  0.60719793  0.98017048  0.73335651     0.11900
H560        H  0.53196401  0.04360470  0.61520751     0.09000
H561        H  0.49833349  0.49991015  0.62247435     0.12300
H562        H  0.56002089  0.45489018  0.71319103     0.14100
C563        C  0.62478265  0.16343460  0.67785789    -0.01400
C564        C  0.59420783  0.15894702  0.69147840    -0.09400
C565        C  0.57491949  0.18409427  0.69907599    -0.18200
C566        C  0.58547083  0.21500749  0.69413717     0.04200
C567        C  0.61728044  0.21968642  0.68694631     0.18400
C568        C  0.63670392  0.19398145  0.68008564    -0.19600
C569        C  0.62919516  0.25001803  0.68520928    -0.20900
C570        C  0.60988273  0.27580079  0.68890843    -0.19500
C571        C  0.57811158  0.27188003  0.69325942     0.19700
C572        C  0.56549216  0.24132874  0.69577352     0.01900
C573        C  0.53324003  0.23833398  0.69748858    -0.14200
C574        C  0.51432596  0.26451347  0.69633822    -0.11900
C575        C  0.52673210  0.29455649  0.69437395     0.01400
C576        C  0.55869936  0.29821597  0.69367784    -0.24100
H577        H  0.58462888  0.13595256  0.69660796     0.09400
H578        H  0.55182146  0.17853769  0.70891315     0.13000
H579        H  0.66083076  0.19784833  0.67339041     0.11700
H580        H  0.65352149  0.25383959  0.68028171     0.12900
H581        H  0.61974936  0.29897296  0.68694079     0.11900
H582        H  0.52182070  0.21606923  0.69808445     0.09000
H583        H  0.48968378  0.26121945  0.69699562     0.12300
H584        H  0.56836551  0.32148822  0.69163752     0.14100
C585        C  0.69115735  0.14013310  0.39136471    -0.01400
C586        C  0.68007400  0.16760588  0.40948661    -0.09400
C587        C  0.67546658  0.16959602  0.45402478    -0.18200
C588        C  0.68198388  0.14405713  0.48240949     0.04200
C589        C  0.69516165  0.11694784  0.46445259     0.18400
C590        C  0.69920471  0.11502762  0.41930833    -0.19600
C591        C  0.70373200  0.09178758  0.49167868    -0.20900
C592        C  0.69893651  0.09277083  0.53620956    -0.19500
C593        C  0.68441187  0.11845303  0.55457148     0.19700
C594        C  0.67548378  0.14428047  0.52779014     0.01900
C595        C  0.65879422  0.16842164  0.54707098    -0.14200
C596        C  0.65037769  0.16660130  0.59052316    -0.11900
C597        C  0.65950090  0.14139251  0.61794966     0.01400
C598        C  0.67735603  0.11774388  0.59913865    -0.24100
H599        H  0.67402503  0.18751851  0.38897740     0.09400
H600        H  0.66681645  0.19152395  0.46526737     0.13000
H601        H  0.70834766  0.09381309  0.40589915     0.11700
H602        H  0.71411769  0.07112588  0.47841755     0.12900
H603        H  0.70570687  0.07282665  0.55624206     0.11900
H604        H  0.65007061  0.18821042  0.52870605     0.09000
H605        H  0.63499259  0.18456969  0.60101975     0.12300
H606        H  0.68388268  0.09752259  0.61881131     0.14100
C607        C  0.00404757  0.34951540  0.16186148    -0.01400
C608        C  0.99520061  0.32286223  0.18654106    -0.09400
C609        C  0.01282868  0.29566782  0.18754904    -0.18200
C610        C  0.04022175  0.29360709  0.16362536     0.04200
C611        C  0.04764125  0.31903432  0.13526547     0.18400
C612        C  0.02891624  0.34585186  0.13324756    -0.19600
C613        C  0.07434258  0.31804839  0.11025583    -0.20900
C614        C  0.09441357  0.29283748  0.11400610    -0.19500
C615        C  0.08817867  0.26782260  0.14258863     0.19700
C616        C  0.06072294  0.26753419  0.16730458     0.01900
C617        C  0.05550047  0.24158321  0.19550524    -0.14200
C618        C  0.07697125  0.21741509  0.19970516    -0.11900
C619        C  0.10437242  0.21812099  0.17601868     0.01400
C620        C  0.10955199  0.24332514  0.14708335    -0.24100
H621        H  0.97448641  0.32238442  0.20550432     0.09400
H622        H  0.00454731  0.27679859  0.20797567     0.13000
H623        H  0.03502656  0.36507688  0.11152737     0.11700
H624        H  0.08015441  0.33728339  0.08842254     0.12900
H625        H  0.11521852  0.29313153  0.09485025     0.11900
H626        H  0.03523794  0.23942251  0.21524981     0.09000
H627        H  0.07216009  0.19821156  0.22204940     0.12300
H628        H  0.13053312  0.24417916  0.12830796     0.14100
C629        C  0.10667120  0.04010468  0.19579289    -0.01400
C630        C  0.07496453  0.04497513  0.19876356    -0.09400
C631        C  0.05449045  0.01988442  0.19701923    -0.18200
C632        C  0.06521238  0.48887006  0.19311932     0.04200
C633        C  0.09749126  0.48405830  0.19182780     0.18400
C634        C  0.11771323  0.00952674  0.19240293    -0.19600
C635        C  0.10950064  0.45383728  0.18993246    -0.20900
C636        C  0.09014152  0.42819683  0.18863279    -0.19500
C637        C  0.05825625  0.43215976  0.18780543     0.19700
C638        C  0.04526404  0.46247936  0.19006978     0.01900
C639        C  0.01295738  0.46495440  0.18848426    -0.14200
C640        C  0.99465997  0.43875453  0.18170847    -0.11900
C641        C  0.00758716  0.40888333  0.17619447     0.01400
C642        C  0.03945246  0.40586562  0.18331320    -0.24100
H643        H  0.06590351  0.06838427  0.20157971     0.09400
H644        H  0.03042877  0.02548251  0.19899278     0.13000
H645        H  0.14225255  0.00547033  0.19080152     0.11700
H646        H  0.13408136  0.44998933  0.18938813     0.12900
H647        H  0.10023199  0.40512543  0.18690910     0.11900
H648        H  0.00117647  0.48697401  0.19075957     0.09000
H649        H  0.97010629  0.44205878  0.17859163     0.12300
H650        H  0.05039334  0.38330378  0.18457924     0.14100
C651        C  0.97283264  0.38666844  0.11679607    -0.01400
C652        C  0.98046759  0.41295120  0.09048458    -0.09400
C653        C  0.97181183  0.41545319  0.04713597    -0.18200
C654        C  0.95640115  0.39104302  0.02665347     0.04200
C655        C  0.94869946  0.36426975  0.05229174     0.18400
C656        C  0.95587512  0.36281053  0.09691780    -0.19600
C657        C  0.93524121  0.33851700  0.03269629    -0.20900
C658        C  0.93047501  0.33838201  0.98806038    -0.19500
C659        C  0.93803446  0.36441787  0.96191667     0.19700
C660        C  0.94999863  0.39158073  0.98116312     0.01900
C661        C  0.95557549  0.41791578  0.95386527    -0.14200
C662        C  0.95128740  0.41670995  0.90916853    -0.11900
C663        C  0.94141580  0.38928193  0.88971816     0.01400
C664        C  0.93424514  0.36332945  0.91658368    -0.24100
H665        H  0.99453067  0.43163977  0.10189524     0.09400
H666        H  0.97928318  0.43618322  0.02980902     0.13000
H667        H  0.95002722  0.34201074  0.11575841     0.11700
H668        H  0.92933701  0.31787746  0.05181330     0.12900
H669        H  0.92098180  0.31766063  0.97384688     0.11900
H670        H  0.96330386  0.43988183  0.96606724     0.09000
H671        H  0.95661440  0.43727127  0.88958747     0.12300
H672        H  0.92603230  0.34210683  0.90219383     0.14100
C673        C  0.98639067  0.88126510  0.16322339    -0.02600
C674        C  0.64574687  0.63594077  0.66405449    -0.02600
O675        O  0.69110998  0.66218500  0.31955649    -0.78600
C676        C  0.74947028  0.69255988  0.20757573     0.82500
O677        O  0.62240388  0.67410575  0.20081961    -0.79700
O678        O  0.70367710  0.62852219  0.11735629    -0.81200
O679        O  0.72863614  0.56867172  0.24748384    -0.81000
O680        O  0.69409588  0.61046535  0.32698535    -0.79600
Zn681      Zn  0.69093638  0.67184662  0.25453678     1.55700
O682        O  0.74841495  0.59238863  0.18914261    -0.81000
Cd683      Cd  0.69095891  0.59652409  0.26292737     1.59700
Cd684      Cd  0.64689391  0.63322116  0.19053277     1.59600
O685        O  0.65184082  0.56930544  0.25826586    -0.81000
O686        O  0.68728971  0.63360811  0.22230307    -1.91500
Cd687      Cd  0.72104732  0.63119677  0.17909529     1.59900
O688        O  0.62137192  0.59499850  0.21148934    -0.80900
O689        O  0.74928715  0.66948190  0.18244693    -0.79600
C690        C  0.63008415  0.69884281  0.22016413     0.82900
C691        C  0.69258987  0.63745552  0.34343965     0.82600
O692        O  0.72920907  0.69574734  0.23688298    -0.78600
C693        C  0.74855602  0.57018850  0.21722630     0.83400
O694        O  0.65536266  0.70071086  0.24068994    -0.78600
C695        C  0.62669432  0.57189240  0.23726681     0.83500
C696        C  0.67696747  0.62791451  0.10057695     0.83900
O697        O  0.65280459  0.62975818  0.12365090    -0.81100
C698        C  0.68783044  0.62454184  0.77471517     0.86400
C699        C  0.70692931  0.65399303  0.76820140    -0.53800
C700        C  0.71711740  0.65937003  0.72711586     0.09300
C701        C  0.70580359  0.63505517  0.69478077     0.20300
C702        C  0.66135540  0.62860871  0.74264278    -0.54600
C703        C  0.67025517  0.63342096  0.70016862     0.09400
C704        C  0.70730012  0.59819443  0.75572467    -0.54100
C705        C  0.71728850  0.60392079  0.71457067     0.10000
H706        H  0.71384806  0.66831254  0.79503115     0.14500
H707        H  0.71428485  0.63962937  0.66148011     0.00300
H708        H  0.63745427  0.62639797  0.75186208     0.14800
H709        H  0.71454309  0.57762434  0.77426258     0.14600
O710        O  0.93903214  0.86116281  0.82367616    -0.78600
C711        C  0.88264187  0.82260848  0.71820621     0.82500
O712        O  0.01068645  0.84145052  0.70910855    -0.79700
O713        O  0.92657807  0.87665384  0.61668351    -0.81200
O714        O  0.90424537  0.94893864  0.73348778    -0.81000
O715        O  0.94160280  0.91299519  0.81887204    -0.79600
Zn716      Zn  0.94142581  0.84681446  0.76105767     1.55700
O717        O  0.88386252  0.92258220  0.67950274    -0.81000
Cd718      Cd  0.94221639  0.92206134  0.75226162     1.59700
Cd719      Cd  0.98529469  0.88018646  0.68718561     1.59600
O720        O  0.97983443  0.94928855  0.73741210    -0.81000
O721        O  0.94515831  0.88225590  0.72021715    -1.91500
Cd722      Cd  0.91033606  0.88223488  0.67825928     1.59900
O723        O  0.01072815  0.92114520  0.69583742    -0.80900
O724        O  0.88182502  0.84488971  0.69028356    -0.79600
C725        C  0.00434236  0.81929759  0.73601969     0.82900
C726        C  0.94023411  0.88769436  0.84153365     0.82600
O727        O  0.90373519  0.82080953  0.74688495    -0.78600
C728        C  0.88425839  0.94627161  0.70361965     0.83400
O729        O  0.97901883  0.81882614  0.75676853    -0.78600
C730        C  0.00445913  0.94617719  0.71570846     0.83500
C731        C  0.95267035  0.87364059  0.59870053     0.83900
O732        O  0.97757735  0.87472730  0.62047377    -0.81100
C733        C  0.94212625  0.87220470  0.27288557     0.86400
C734        C  0.92331245  0.84567322  0.25375086    -0.53800
C735        C  0.91443630  0.85066388  0.21201388     0.09300
C736        C  0.92604474  0.88151096  0.19181579     0.20300
C737        C  0.96947995  0.87583133  0.24202486    -0.54600
C738        C  0.96143287  0.87990451  0.19888577     0.09400
C739        C  0.92319095  0.90171691  0.26438594    -0.54100
C740        C  0.91406492  0.90646724  0.22272482     0.10000
H741        H  0.91568319  0.82546140  0.27269745     0.14500
H742        H  0.91821139  0.88550670  0.15804907     0.00300
H743        H  0.99318923  0.87397685  0.25239735     0.14800
H744        H  0.91530667  0.91644500  0.29027313     0.14600
C745        C  0.48709582  0.88330196  0.24509154    -0.02600
C746        C  0.14588992  0.63028066  0.75409154    -0.02600
O747        O  0.19128141  0.60040307  0.09881339    -0.78600
C748        C  0.24952381  0.56993653  0.20968834     0.82500
O749        O  0.12159336  0.59137989  0.21599124    -0.79700
O750        O  0.20620860  0.63265049  0.29943010    -0.81200
O751        O  0.22945619  0.69421586  0.16859361    -0.81000
O752        O  0.19385272  0.65210257  0.09080782    -0.79600
Zn753      Zn  0.19050264  0.59137084  0.16379565     1.55700
O754        O  0.24972843  0.67112193  0.22716932    -0.81000
Cd755      Cd  0.19125150  0.66672458  0.15454271     1.59700
Cd756      Cd  0.14766782  0.63107178  0.22823036     1.59600
O757        O  0.15230535  0.69438398  0.15950627    -0.81000
O758        O  0.18774194  0.62992716  0.19552614    -1.91500
Cd759      Cd  0.22260166  0.63213335  0.23727364     1.59900
O760        O  0.12265889  0.67054143  0.20891186    -0.80900
O761        O  0.25107284  0.59392369  0.23299526    -0.79600
C762        C  0.12846037  0.56660485  0.19603430     0.82900
C763        C  0.19261675  0.62498623  0.07470770     0.82600
O764        O  0.22801118  0.56644747  0.18225958    -0.78600
C765        C  0.24973461  0.69292632  0.19846706     0.83400
O766        O  0.15393856  0.56385341  0.17631893    -0.78600
C767        C  0.12766726  0.69291199  0.18176067     0.83500
C768        C  0.17993467  0.63234299  0.31746255     0.83900
O769        O  0.15519323  0.63189594  0.29527636    -0.81100
C770        C  0.19106638  0.63282447  0.64488220     0.86400
C771        C  0.20821655  0.60296707  0.65846829    -0.53800
C772        C  0.21689574  0.60145242  0.70070403     0.09300
C773        C  0.20694777  0.62991203  0.72660826     0.20300
C774        C  0.16376847  0.63397015  0.67595828    -0.54600
C775        C  0.17148448  0.63220489  0.71925800     0.09400
C776        C  0.21171782  0.65959899  0.65899110    -0.54100
C777        C  0.22074706  0.65795392  0.70109621     0.10000
H778        H  0.21482458  0.58530452  0.63561763     0.14500
H779        H  0.21486986  0.62825785  0.76057051     0.00300
H780        H  0.14011754  0.63564227  0.66540886     0.14800
H781        H  0.22065360  0.67716842  0.63645019     0.14600
O782        O  0.40662041  0.81733611  0.67289427    -0.78600
C783        C  0.44105617  0.87985475  0.56683106     0.82500
O784        O  0.51203322  0.84622274  0.71233236    -0.79700
O785        O  0.47939693  0.94877585  0.65260068    -0.81200
O786        O  0.38142545  0.91853774  0.71817320    -0.81000
O787        O  0.38622506  0.84133153  0.72885964    -0.79600
Zn788      Zn  0.44366765  0.84469978  0.65555580     1.55700
O789        O  0.40364169  0.94719574  0.66577523    -0.81000
Cd790      Cd  0.41128505  0.88220507  0.73011237     1.59700
Cd791      Cd  0.48584385  0.88622117  0.72119310     1.59600
O792        O  0.42744462  0.88846137  0.79168762    -0.81000
O793        O  0.44585681  0.88290933  0.68814263    -1.91500
Cd794      Cd  0.44127480  0.92021970  0.64811750     1.59900
O795        O  0.47837307  0.89118454  0.78769447    -0.80900
O796        O  0.43824325  0.90665803  0.58362969    -0.79600
C797        C  0.50571577  0.82153746  0.69191830     0.82900
C798        C  0.38683593  0.81848758  0.70331376     0.82600
O799        O  0.44354218  0.85504980  0.59047769    -0.78600
C800        C  0.38236189  0.94269393  0.69352673     0.83400
O801        O  0.48103957  0.81885518  0.67013750    -0.78600
C802        C  0.45354267  0.89194013  0.80951491     0.83500
C803        C  0.50446355  0.94777499  0.67392348     0.83900
O804        O  0.51063349  0.92524455  0.70028674    -0.81100
C805        C  0.44281158  0.89112258  0.13505758     0.86400
C806        C  0.42331868  0.91730281  0.15407302    -0.53800
C807        C  0.41458821  0.91215791  0.19581139     0.09300
C808        C  0.42691296  0.88154504  0.21604573     0.20300
C809        C  0.47022674  0.88824952  0.16609026    -0.54600
C810        C  0.46224367  0.88405253  0.20920601     0.09400
C811        C  0.42460488  0.86120634  0.14354667    -0.54100
C812        C  0.41561971  0.85625799  0.18520331     0.10000
H813        H  0.41538978  0.93745909  0.13517365     0.14500
H814        H  0.41908919  0.87735863  0.24973060     0.00300
H815        H  0.49387743  0.89074502  0.15580473     0.14800
H816        H  0.41708448  0.84631153  0.11765334     0.14600
C817        C  0.45412205  0.89716182  0.85682195    -0.01400
C818        C  0.42677934  0.90552524  0.87734003    -0.09400
C819        C  0.42532495  0.90816361  0.92194151    -0.18200
C820        C  0.45124383  0.90201481  0.94822231     0.04200
C821        C  0.47959029  0.89579099  0.92746261     0.18400
C822        C  0.48084578  0.89340373  0.88198547    -0.19600
C823        C  0.50617546  0.89129303  0.95243911    -0.20900
C824        C  0.50493535  0.89182006  0.99755552    -0.19500
C825        C  0.47695158  0.89609320  0.01898382     0.19700
C826        C  0.44975059  0.90122981  0.99433672     0.01900
C827        C  0.42179502  0.90376603  0.01676410    -0.14200
C828        C  0.42072630  0.90096570  0.06143929    -0.11900
C829        C  0.44735948  0.89623976  0.08638758     0.01400
C830        C  0.47568762  0.89416182  0.06474793    -0.24100
H831        H  0.40602988  0.90979938  0.85880088     0.09400
H832        H  0.40340792  0.91496690  0.93475675     0.13000
H833        H  0.50233081  0.88764696  0.86643661     0.11700
H834        H  0.52802598  0.88696108  0.93700100     0.12900
H835        H  0.52587410  0.88792761  0.01582872     0.11900
H836        H  0.39998247  0.90665238  0.00077562     0.09000
H837        H  0.39842942  0.90187000  0.07684040     0.12300
H838        H  0.49652053  0.88974655  0.08291124     0.14100
C839        C  0.24735675  0.67682068  0.71486444    -0.01400
C840        C  0.24348164  0.70278180  0.74075756    -0.09400
C841        C  0.26701610  0.72491615  0.74433002    -0.18200
C842        C  0.29501763  0.72181452  0.72136149     0.04200
C843        C  0.29931099  0.69427146  0.69741939     0.18400
C844        C  0.27569878  0.67217934  0.69463017    -0.19600
C845        C  0.32651062  0.68965464  0.67440798    -0.20900
C846        C  0.34905736  0.71253414  0.67274293    -0.19500
C847        C  0.34502745  0.74065955  0.69405450     0.19700
C848        C  0.31831517  0.74545515  0.71957063     0.01900
C849        C  0.31571094  0.77414569  0.74084732    -0.14200
C850        C  0.33807721  0.79734728  0.73583214    -0.11900
C851        C  0.36384507  0.79300439  0.70940157     0.01400
C852        C  0.36730735  0.76428633  0.68913682    -0.24100
H853        H  0.22162338  0.70685512  0.75629239     0.09400
H854        H  0.26216275  0.74479506  0.76386423     0.13000
H855        H  0.27860180  0.65215088  0.67423581     0.11700
H856        H  0.32999989  0.66853346  0.65647720     0.12900
H857        H  0.36948680  0.70850041  0.65371924     0.11900
H858        H  0.29643340  0.77952318  0.76115011     0.09000
H859        H  0.33481836  0.81912528  0.75225941     0.12300
H860        H  0.38729753  0.76035357  0.66915110     0.14100
C861        C  0.35819944  0.96628372  0.69837651    -0.01400
C862        C  0.36582828  0.99719935  0.70681202    -0.09400
C863        C  0.34289422  0.51922356  0.71452525    -0.18200
C864        C  0.31148669  0.51099503  0.71270357     0.04200
C865        C  0.30404944  0.97963191  0.70294255     0.18400
C866        C  0.32735918  0.95750308  0.69715398    -0.19600
C867        C  0.27342679  0.97070718  0.69790402    -0.20900
C868        C  0.25000076  0.49262681  0.70025401    -0.19500
C869        C  0.25655934  0.52369998  0.70939611     0.19700
C870        C  0.28721039  0.53303125  0.71794645     0.01900
C871        C  0.29218180  0.56423217  0.73011522    -0.14200
C872        C  0.26821406  0.58597293  0.72910664    -0.11900
C873        C  0.23888205  0.57727325  0.71571412     0.01400
C874        C  0.23284595  0.54587198  0.70790250    -0.24100
H875        H  0.38967315  0.00418150  0.70832753     0.09400
H876        H  0.35038867  0.54265670  0.72061619     0.13000
H877        H  0.32154031  0.93349454  0.69053518     0.11700
H878        H  0.26763910  0.94684969  0.69049513     0.12900
H879        H  0.22661942  0.48530834  0.69430168     0.11900
H880        H  0.31445376  0.57263758  0.73948883     0.09000
H881        H  0.27315283  0.61010476  0.73582168     0.12300
H882        H  0.20995474  0.53910303  0.69806871     0.14100
C883        C  0.17890688  0.63244777  0.36552247    -0.01400
C884        C  0.15124522  0.63061924  0.38861189    -0.09400
C885        C  0.15113463  0.63074581  0.43400957    -0.18200
C886        C  0.17885584  0.63271649  0.45775627     0.04200
C887        C  0.20672160  0.63424439  0.43394483     0.18400
C888        C  0.20645701  0.63415959  0.38874329    -0.19600
C889        C  0.23494585  0.63584335  0.45522694    -0.20900
C890        C  0.23626290  0.63584730  0.49990695    -0.19500
C891        C  0.20937629  0.63452536  0.52442353     0.19700
C892        C  0.18021152  0.63316513  0.50404851     0.01900
C893        C  0.15396321  0.63236653  0.53104292    -0.14200
C894        C  0.15670577  0.63278119  0.57628042    -0.11900
C895        C  0.18571895  0.63379047  0.59607115     0.01400
C896        C  0.21176360  0.63448359  0.56943417    -0.24100
H897        H  0.12961000  0.62905628  0.37158307     0.09400
H898        H  0.12907747  0.62920266  0.44964696     0.13000
H899        H  0.22810678  0.63546639  0.37156148     0.11700
H900        H  0.25622654  0.63699399  0.43715799     0.12900
H901        H  0.25853247  0.63697980  0.51542256     0.11900
H902        H  0.13102437  0.63142784  0.51807739     0.09000
H903        H  0.13595312  0.63179105  0.59523806     0.12300
H904        H  0.23436186  0.63489414  0.58417203     0.14100
C905        C  0.39031651  0.83403335  0.19470797    -0.01400
C906        C  0.39330503  0.80957135  0.22513399    -0.09400
C907        C  0.37054332  0.78645291  0.22873866    -0.18200
C908        C  0.34410797  0.78734619  0.20180572     0.04200
C909        C  0.34097115  0.81307034  0.17228406     0.18400
C910        C  0.36374882  0.83595969  0.16929333    -0.19600
C911        C  0.31548398  0.81554563  0.14492676    -0.20900
C912        C  0.29306181  0.79265300  0.14550994    -0.19500
C913        C  0.29549320  0.76670005  0.17353319     0.19700
C914        C  0.32087530  0.76366593  0.20238770     0.01900
C915        C  0.32190385  0.73692029  0.23002168    -0.14200
C916        C  0.29883810  0.71423635  0.22880808    -0.11900
C917        C  0.27401736  0.71725920  0.19997677     0.01400
C918        C  0.27260361  0.74369272  0.17253843    -0.24100
H919        H  0.41374441  0.80771761  0.24497979     0.09400
H920        H  0.37450855  0.76789530  0.25222555     0.13000
H921        H  0.36125524  0.85512413  0.14596746     0.11700
H922        H  0.31304356  0.83520248  0.12246668     0.12900
H923        H  0.27375359  0.79516614  0.12358910     0.11900
H924        H  0.34028759  0.73285266  0.25280852     0.09000
H925        H  0.30062455  0.69406984  0.25044151     0.12300
H926        H  0.25353852  0.74647183  0.15022670     0.14100
C927        C  0.39085057  0.93195481  0.21486058    -0.01400
C928        C  0.36052364  0.92159019  0.21484940    -0.09400
C929        C  0.33638483  0.94266960  0.21928531    -0.18200
C930        C  0.34210209  0.97489455  0.22381921     0.04200
C931        C  0.37307463  0.98463499  0.22844536     0.18400
C932        C  0.39714972  0.96320017  0.22330178    -0.19600
C933        C  0.37981323  0.51595585  0.23593114    -0.20900
C934        C  0.35644753  0.53808070  0.23726021    -0.19500
C935        C  0.32597748  0.52960619  0.22936976     0.19700
C936        C  0.31838362  0.49788101  0.22236231     0.01900
C937        C  0.28765549  0.49078158  0.21174641    -0.14200
C938        C  0.26557524  0.51425246  0.20756273    -0.11900
C939        C  0.27309360  0.54537127  0.21489161     0.01400
C940        C  0.30320010  0.55284275  0.22674293    -0.24100
H941        H  0.35539824  0.89745527  0.20833103     0.09400
H942        H  0.31354546  0.93317436  0.21795279     0.13000
H943        H  0.42077276  0.97111312  0.22328561     0.11700
H944        H  0.40333311  0.52346317  0.24014803     0.12900
H945        H  0.36240616  0.56219740  0.24270774     0.11900
H946        H  0.28015903  0.96749393  0.20492152     0.09000
H947        H  0.24238979  0.50798352  0.19864038     0.12300
H948        H  0.30919352  0.57698131  0.23209196     0.14100
C949        C  0.15886897  0.62421989  0.80055107    -0.01400
C950        C  0.14926625  0.59884887  0.82726746    -0.09400
C951        C  0.15787045  0.59606195  0.87063603    -0.18200
C952        C  0.17551582  0.61923009  0.89041764     0.04200
C953        C  0.18529914  0.64495670  0.86414436     0.18400
C954        C  0.17735954  0.64698117  0.81993693    -0.19600
C955        C  0.20176326  0.66927514  0.88263350    -0.20900
C956        C  0.20732386  0.66934080  0.92698912    -0.19500
C957        C  0.19721020  0.64472486  0.95393265     0.19700
C958        C  0.18221843  0.61870303  0.93580021     0.01900
C959        C  0.17389934  0.59370804  0.96413183    -0.14200
C960        C  0.17848410  0.59541380  0.00875476    -0.11900
C961        C  0.19135466  0.62203097  0.02688629     0.01400
C962        C  0.20130156  0.64633538  0.99904408    -0.24100
H963        H  0.13351028  0.58144595  0.81620883     0.09400
H964        H  0.14885397  0.57621160  0.88842920     0.13000
H965        H  0.18428649  0.66729405  0.80081969     0.11700
H966        H  0.20949478  0.68894080  0.86287012     0.12900
H967        H  0.21921602  0.68905275  0.94041470     0.11900
H968        H  0.16357235  0.57259086  0.95286919     0.09000
H969        H  0.17089975  0.57613170  0.02932163     0.12300
H970        H  0.21183045  0.66680799  0.01255905     0.14100
C971        C  0.47370491  0.87752310  0.29148837    -0.01400
C972        C  0.48353139  0.85248895  0.31872831    -0.09400
C973        C  0.47543668  0.85037729  0.36231130    -0.18200
C974        C  0.45814006  0.87394359  0.38193404     0.04200
C975        C  0.44801765  0.89935169  0.35522305     0.18400
C976        C  0.45507953  0.90049508  0.31058811    -0.19600
C977        C  0.43217315  0.92419205  0.37370958    -0.20900
C978        C  0.42729222  0.92485611  0.41827679    -0.19500
C979        C  0.43733511  0.90027502  0.44553170     0.19700
C980        C  0.45197143  0.87395636  0.42748860     0.01900
C981        C  0.46028627  0.84902848  0.45599365    -0.14200
C982        C  0.45570191  0.85080704  0.50058173    -0.11900
C983        C  0.44284581  0.87746198  0.51877131     0.01400
C984        C  0.43328956  0.90200830  0.49077363    -0.24100
H985        H  0.49912261  0.83481260  0.30789664     0.09400
H986        H  0.48468812  0.83071652  0.38039132     0.13000
H987        H  0.44773225  0.92048672  0.29103642     0.11700
H988        H  0.42433523  0.94374860  0.35372782     0.12900
H989        H  0.41576768  0.94488293  0.43156479     0.11900
H990        H  0.47043090  0.82774089  0.44486649     0.09000
H991        H  0.46310660  0.83137790  0.52108970     0.12300
H992        H  0.42289629  0.92261904  0.50420267     0.14100
C993        C  0.02566013  0.97308956  0.71344429    -0.01400
C994        C  0.01339413  0.00330120  0.71217849    -0.09400
C995        C  0.03236779  0.02938155  0.71323609    -0.18200
C996        C  0.06458695  0.52615969  0.71650411     0.04200
C997        C  0.07707436  0.49545938  0.71772131     0.18400
C998        C  0.05761781  0.96926325  0.71520340    -0.19600
C999        C  0.10876297  0.49117671  0.72292438    -0.20900
C1000       C  0.12811971  0.51664179  0.72855363    -0.19500
C1001       C  0.11637805  0.54710697  0.72825431     0.19700
C1002       C  0.08463752  0.55227400  0.72065698     0.01900
C1003       C  0.07426683  0.58341806  0.71778756    -0.14200
C1004       C  0.09375446  0.60817109  0.72663766    -0.11900
C1005       C  0.12445132  0.60315577  0.73970416     0.01400
C1006       C  0.13597401  0.57240728  0.73669079    -0.24100
H1007       H  0.98877808  0.00680893  0.71073205     0.09400
H1008       H  0.02098047  0.05170746  0.71304057     0.13000
H1009       H  0.06722552  0.94591328  0.71671941     0.11700
H1010       H  0.11854352  0.46790809  0.72387978     0.12900
H1011       H  0.15238288  0.51243819  0.73380201     0.11900
H1012       H  0.05114194  0.58951083  0.70853520     0.09000
H1013       H  0.08417763  0.63130278  0.72274966     0.12300
H1014       H  0.16002993  0.56803390  0.74349604     0.14100
C1015       C  0.02660795  0.79313304  0.74296459    -0.01400
C1016       C  0.02019030  0.76878822  0.77273537    -0.09400
C1017       C  0.04017014  0.74338679  0.77816199    -0.18200
C1018       C  0.06748663  0.74126782  0.75373130     0.04200
C1019       C  0.07411119  0.76609815  0.72388485     0.18400
C1020       C  0.05392477  0.79168401  0.71902920    -0.19600
C1021       C  0.10060335  0.76499516  0.69841992    -0.20900
C1022       C  0.12026671  0.73940490  0.70106896    -0.19500
C1023       C  0.11414755  0.71428597  0.72951881     0.19700
C1024       C  0.08806667  0.71514328  0.75697733     0.01900
C1025       C  0.08371514  0.68972343  0.78621931    -0.14200
C1026       C  0.10317742  0.66376515  0.78608653    -0.11900
C1027       C  0.12753922  0.66150999  0.75633955     0.01400
C1028       C  0.13371585  0.68807096  0.72989569    -0.24100
H1029       H  0.99935329  0.76912279  0.79175394     0.09400
H1030       H  0.03328886  0.72550200  0.80121285     0.13000
H1031       H  0.05927685  0.81024062  0.69584186     0.11700
H1032       H  0.10589996  0.78384984  0.67569460     0.12900
H1033       H  0.14023395  0.73908586  0.68022586     0.11900
H1034       H  0.06521341  0.68898923  0.80929568     0.09000
H1035       H  0.09826109  0.64442869  0.80816008     0.12300
H1036       H  0.15341255  0.68859242  0.70871857     0.14100
C1037       C  0.95306471  0.86855981  0.55126067    -0.01400
C1038       C  0.92542412  0.86136798  0.53059220    -0.09400
C1039       C  0.92390316  0.85842468  0.48603962    -0.18200
C1040       C  0.95008284  0.86296405  0.45982091     0.04200
C1041       C  0.97856571  0.86847101  0.48066866     0.18400
C1042       C  0.97987380  0.87118688  0.52613115    -0.19600
C1043       C  0.00528555  0.87187955  0.45579167    -0.20900
C1044       C  0.00408928  0.87105311  0.41069340    -0.19500
C1045       C  0.97607013  0.86728646  0.38914817     0.19700
C1046       C  0.94874192  0.86292558  0.41367889     0.01900
C1047       C  0.92088694  0.86008082  0.39102226    -0.14200
C1048       C  0.91996165  0.86240138  0.34631341    -0.11900
C1049       C  0.94663522  0.86708979  0.32155854     0.01400
C1050       C  0.97492613  0.86893139  0.34336242    -0.24100
H1051       H  0.90447414  0.85820226  0.54896801     0.09400
H1052       H  0.90166207  0.85274719  0.47325478     0.13000
H1053       H  0.00153918  0.87618666  0.54170918     0.11700
H1054       H  0.02721922  0.87568011  0.47129182     0.12900
H1055       H  0.02513221  0.87423012  0.39250697     0.11900
H1056       H  0.89902462  0.85713685  0.40678042     0.09000
H1057       H  0.89772756  0.86129449  0.33071209     0.12300
H1058       H  0.99584060  0.87290390  0.32529818     0.14100
C1059       C  0.74293763  0.58548696  0.69739272    -0.01400
C1060       C  0.73736222  0.55787525  0.67574719    -0.09400
C1061       C  0.76098594  0.53615975  0.66998541    -0.18200
C1062       C  0.79072205  0.54119888  0.68709894     0.04200
C1063       C  0.79643166  0.57024624  0.70684040     0.18400
C1064       C  0.77271869  0.59215084  0.71119780    -0.19600
C1065       C  0.82522902  0.57649774  0.72462686    -0.20900
C1066       C  0.84807071  0.55382529  0.72555510    -0.19500
C1067       C  0.84278264  0.52441381  0.70840049     0.19700
C1068       C  0.81442694  0.51795593  0.68763743     0.01900
C1069       C  0.81072245  0.98811488  0.66991077    -0.14200
C1070       C  0.83358199  0.96527246  0.67440000    -0.11900
C1071       C  0.86083821  0.97123251  0.69684594     0.01400
C1072       C  0.86545219  0.00114580  0.71303082    -0.24100
H1073       H  0.71430676  0.55234789  0.66533206     0.09400
H1074       H  0.75486666  0.51500856  0.65401461     0.13000
H1075       H  0.77682751  0.61341860  0.72855358     0.11700
H1076       H  0.82975964  0.59870124  0.73937564     0.12900
H1077       H  0.86977782  0.55907047  0.74083502     0.11900
H1078       H  0.79025919  0.98155588  0.65285764     0.09000
H1079       H  0.82953045  0.94252059  0.66106331     0.12300
H1080       H  0.88668264  0.00628317  0.72967632     0.14100
C1081       C  0.74300042  0.68121670  0.71928574    -0.01400
C1082       C  0.74325562  0.70258760  0.68446097    -0.09400
C1083       C  0.76640350  0.72526758  0.68110751    -0.18200
C1084       C  0.78993602  0.72703507  0.71276254     0.04200
C1085       C  0.79019541  0.70404349  0.74657344     0.18400
C1086       C  0.76717488  0.68146768  0.74918294    -0.19600
C1087       C  0.81296182  0.70406004  0.77845169    -0.20900
C1088       C  0.83532461  0.72699094  0.77823045    -0.19500
C1089       C  0.83544143  0.75051408  0.74617000     0.19700
C1090       C  0.81292043  0.75086453  0.71275590     0.01900
C1091       C  0.81414026  0.77538607  0.68146135    -0.14200
C1092       C  0.83658969  0.79856119  0.68351436    -0.11900
C1093       C  0.85866270  0.79811530  0.71662823     0.01400
C1094       C  0.85792517  0.77385652  0.74771028    -0.24100
H1095       H  0.72497925  0.70244842  0.66071827     0.09400
H1096       H  0.76497911  0.74140021  0.65391818     0.13000
H1097       H  0.76767169  0.66426401  0.77548522     0.11700
H1098       H  0.81322950  0.68641825  0.80415814     0.12900
H1099       H  0.85245042  0.72652982  0.80366073     0.11900
H1100       H  0.79794594  0.77741101  0.65520331     0.09000
H1101       H  0.83663646  0.81692881  0.65885233     0.12300
H1102       H  0.87483845  0.77315818  0.77343734     0.14100
C1103       C  0.60324931  0.54698676  0.24219975    -0.01400
C1104       C  0.57650325  0.54788758  0.21700626    -0.09400
C1105       C  0.55525134  0.52358338  0.21928985    -0.18200
C1106       C  0.55999710  0.99730392  0.24705883     0.04200
C1107       C  0.58668113  0.99690622  0.27354302     0.18400
C1108       C  0.60790328  0.52156600  0.27093225    -0.19600
C1109       C  0.59239157  0.97160652  0.30188198    -0.20900
C1110       C  0.57262408  0.94620450  0.30359544    -0.19500
C1111       C  0.54677428  0.94536223  0.27679180     0.19700
C1112       C  0.53979072  0.97105114  0.24864897     0.01900
C1113       C  0.51318255  0.96903315  0.22281507    -0.14200
C1114       C  0.49570540  0.94179194  0.22238876    -0.11900
C1115       C  0.50408039  0.91516486  0.24740322     0.01400
C1116       C  0.52848377  0.91843129  0.27693305    -0.24100
H1117       H  0.57215332  0.56725251  0.19468854     0.09400
H1118       H  0.53556416  0.52587606  0.19838009     0.13000
H1119       H  0.62837638  0.52060936  0.29085563     0.11700
H1120       H  0.61256705  0.97122951  0.32239150     0.12900
H1121       H  0.57800793  0.92673449  0.32531472     0.11900
H1122       H  0.50544934  0.48798384  0.20203246     0.09000
H1123       H  0.47561724  0.94210086  0.20202540     0.12300
H1124       H  0.53446581  0.89888858  0.29823700     0.14100
C1125       C  0.60951418  0.72635801  0.21842168    -0.01400
C1126       C  0.62191174  0.75643158  0.21975174    -0.09400
C1127       C  0.60293900  0.78271120  0.21859524    -0.18200
C1128       C  0.57065592  0.77971262  0.21701850     0.04200
C1129       C  0.55813305  0.74913227  0.21641812     0.18400
C1130       C  0.57758366  0.72288493  0.21604829    -0.19600
C1131       C  0.52628014  0.74494169  0.21746883    -0.20900
C1132       C  0.50663977  0.77041879  0.22093232    -0.19500
C1133       C  0.51832800  0.80077260  0.22201348     0.19700
C1134       C  0.55036666  0.80588924  0.21810785     0.01900
C1135       C  0.56068336  0.83701026  0.21546707    -0.14200
C1136       C  0.54053898  0.86183710  0.22142178    -0.11900
C1137       C  0.50941657  0.85671336  0.23195083     0.01400
C1138       C  0.49827482  0.82599812  0.22829345    -0.24100
H1139       H  0.64652230  0.75968123  0.22152564     0.09400
H1140       H  0.61417376  0.80501081  0.22046311     0.13000
H1141       H  0.56782641  0.69965430  0.21552842     0.11700
H1142       H  0.51652612  0.72172468  0.21701673     0.12900
H1143       H  0.48215999  0.76632328  0.22326147     0.11900
H1144       H  0.58422002  0.84291520  0.20843726     0.09000
H1145       H  0.54997305  0.88498657  0.21772997     0.12300
H1146       H  0.47400349  0.82159617  0.23303987     0.14100
C1147       C  0.67464249  0.62453691  0.05302022    -0.01400
C1148       C  0.64815823  0.63301603  0.02968546    -0.09400
C1149       C  0.64737862  0.63102893  0.98441178    -0.18200
C1150       C  0.67319155  0.62032777  0.96114951     0.04200
C1151       C  0.69949893  0.61091122  0.98544830     0.18400
C1152       C  0.69991558  0.61303182  0.03049368    -0.19600
C1153       C  0.72573238  0.59999532  0.96474232    -0.20900
C1154       C  0.72702053  0.59931780  0.92010891    -0.19500
C1155       C  0.70198827  0.60922969  0.89504949     0.19700
C1156       C  0.67440321  0.61923045  0.91485029     0.01900
C1157       C  0.64988164  0.62851461  0.88725745    -0.14200
C1158       C  0.65312622  0.62871592  0.84202317    -0.11900
C1159       C  0.68083819  0.61952721  0.82279685     0.01400
C1160       C  0.70503638  0.61003677  0.85009381    -0.24100
H1161       H  0.62822454  0.64183502  0.04635397     0.09400
H1162       H  0.62650485  0.63839643  0.96842893     0.13000
H1163       H  0.72037110  0.60589465  0.04815052     0.11700
H1164       H  0.74571412  0.59255042  0.98319707     0.12900
H1165       H  0.74798265  0.59138861  0.90503638     0.11900
H1166       H  0.62820282  0.63638516  0.89976017     0.09000
H1167       H  0.63426021  0.63743239  0.82249294     0.12300
H1168       H  0.72710497  0.60428003  0.83624350     0.14100
C1169       C  0.88824093  0.92813804  0.21335028    -0.01400
C1170       C  0.89079014  0.95287453  0.18335410    -0.09400
C1171       C  0.86785262  0.97591817  0.18056966    -0.18200
C1172       C  0.84169338  0.97465312  0.20792028     0.04200
C1173       C  0.83882738  0.94848501  0.23667836     0.18400
C1174       C  0.86182312  0.92571220  0.23893526    -0.19600
C1175       C  0.81350465  0.94555908  0.26418591    -0.20900
C1176       C  0.79111703  0.96857255  0.26474161    -0.19500
C1177       C  0.79349382  0.99511649  0.23783132     0.19700
C1178       C  0.81860134  0.49851064  0.20868038     0.01900
C1179       C  0.81963447  0.52582649  0.18220265    -0.14200
C1180       C  0.79693444  0.54883398  0.18498764    -0.11900
C1181       C  0.77247623  0.54555458  0.21426489     0.01400
C1182       C  0.77093417  0.51847709  0.24039993    -0.24100
H1183       H  0.91109829  0.95508101  0.16337786     0.09400
H1184       H  0.87154949  0.49475418  0.15751070     0.13000
H1185       H  0.85974418  0.90640673  0.26209127     0.11700
H1186       H  0.81122835  0.92550657  0.28596936     0.12900
H1187       H  0.77198095  0.96576709  0.28683088     0.11900
H1188       H  0.83778753  0.53016203  0.15921932     0.09000
H1189       H  0.79873492  0.56945891  0.16423647     0.12300
H1190       H  0.75206470  0.51547793  0.26292230     0.14100
C1191       C  0.77374579  0.71628484  0.20217794    -0.01400
C1192       C  0.80244762  0.70805064  0.18562858    -0.09400
C1193       C  0.82563222  0.73024992  0.18057075    -0.18200
C1194       C  0.82064004  0.76170826  0.19143884     0.04200
C1195       C  0.79104979  0.77010102  0.20679413     0.18400
C1196       C  0.76815726  0.74738466  0.21253277    -0.19600
C1197       C  0.78452355  0.80107121  0.21671940    -0.20900
C1198       C  0.80705642  0.82382531  0.21308805    -0.19500
C1199       C  0.83679689  0.81604609  0.20016720     0.19700
C1200       C  0.84404897  0.78496907  0.18866688     0.01900
C1201       C  0.87479152  0.77830507  0.17712038    -0.14200
C1202       C  0.89767854  0.80090547  0.18048634    -0.11900
C1203       C  0.89040749  0.83090636  0.19379438     0.01400
C1204       C  0.85982717  0.83876107  0.20156247    -0.24100
H1205       H  0.80717092  0.68415153  0.17711802     0.09400
H1206       H  0.84714297  0.72205570  0.16798459     0.13000
H1207       H  0.74577640  0.75400089  0.22460811     0.11700
H1208       H  0.76193031  0.80767338  0.22794469     0.12900
H1209       H  0.80144918  0.84749006  0.22186644     0.11900
H1210       H  0.88221942  0.75543661  0.16788974     0.09000
H1211       H  0.92140719  0.79442517  0.17525864     0.12300
H1212       H  0.85442066  0.86184984  0.21284214     0.14100
C1213       C  0.62698249  0.60513887  0.66085229    -0.01400
C1214       C  0.60217887  0.60402914  0.63168226    -0.09400
C1215       C  0.58270522  0.57825379  0.63051441    -0.18200
C1216       C  0.58763716  0.55185923  0.65788185     0.04200
C1217       C  0.61429814  0.55153505  0.68427913     0.18400
C1218       C  0.63383811  0.57757660  0.68491688    -0.19600
C1219       C  0.62107640  0.52538213  0.71060540    -0.20900
C1220       C  0.60141360  0.49987708  0.71229000    -0.19500
C1221       C  0.57436560  0.49990759  0.68786903     0.19700
C1222       C  0.56713720  0.52582819  0.66010122     0.01900
C1223       C  0.53934628  0.52484110  0.63658766    -0.14200
C1224       C  0.51955724  0.99938371  0.64071724    -0.11900
C1225       C  0.52658997  0.97393683  0.66835602     0.01400
C1226       C  0.55427883  0.97432071  0.69156120    -0.24100
H1227       H  0.59699044  0.62406502  0.61092251     0.09400
H1228       H  0.56382538  0.57987736  0.60808201     0.13000
H1229       H  0.65421575  0.57600372  0.70471434     0.11700
H1230       H  0.64153334  0.52482512  0.73055879     0.12900
H1231       H  0.60717605  0.48017663  0.73339737     0.11900
H1232       H  0.53195134  0.54360960  0.61523535     0.09000
H1233       H  0.49834644  0.99990557  0.62245132     0.12300
H1234       H  0.56004106  0.95488368  0.71315621     0.14100
C1235       C  0.62478657  0.66343133  0.67788293    -0.01400
C1236       C  0.59421225  0.65894573  0.69150770    -0.09400
C1237       C  0.57492530  0.68409415  0.69910506    -0.18200
C1238       C  0.58547823  0.71500656  0.69416498     0.04200
C1239       C  0.61728833  0.71968363  0.68697672     0.18400
C1240       C  0.63671000  0.69397748  0.68011143    -0.19600
C1241       C  0.62920489  0.75001469  0.68524716    -0.20900
C1242       C  0.60989366  0.77579841  0.68894997    -0.19500
C1243       C  0.57812163  0.77187948  0.69329325     0.19700
C1244       C  0.56550056  0.74132878  0.69579870     0.01900
C1245       C  0.53324803  0.73833537  0.69750042    -0.14200
C1246       C  0.51433510  0.76451582  0.69634741    -0.11900
C1247       C  0.52674246  0.79455867  0.69439401     0.01400
C1248       C  0.55871026  0.79821651  0.69371058    -0.24100
H1249       H  0.58463201  0.63595200  0.69663882     0.09400
H1250       H  0.55182720  0.67853962  0.70894436     0.13000
H1251       H  0.66083671  0.69784305  0.67341402     0.11700
H1252       H  0.65353175  0.75383511  0.68032342     0.12900
H1253       H  0.61976184  0.79897005  0.68698895     0.11900
H1254       H  0.52182813  0.71607091  0.69808542     0.09000
H1255       H  0.48969267  0.76122256  0.69699345     0.12300
H1256       H  0.56837776  0.82148837  0.69167746     0.14100
C1257       C  0.69115006  0.64014941  0.39137415    -0.01400
C1258       C  0.68005991  0.66761789  0.40950016    -0.09400
C1259       C  0.67544940  0.66960270  0.45403832    -0.18200
C1260       C  0.68197007  0.64406251  0.48241925     0.04200
C1261       C  0.69515230  0.61695680  0.46445816     0.18400
C1262       C  0.69919934  0.61504237  0.41931399    -0.19600
C1263       C  0.70372323  0.59179437  0.49167987    -0.20900
C1264       C  0.69892499  0.59277206  0.53621049    -0.19500
C1265       C  0.68439867  0.61845166  0.55457672     0.19700
C1266       C  0.67546979  0.64428130  0.52780018     0.01900
C1267       C  0.65878137  0.66842116  0.54708652    -0.14200
C1268       C  0.65036875  0.66659854  0.59054020    -0.11900
C1269       C  0.65949310  0.64138764  0.61796167     0.01400
C1270       C  0.67734397  0.61773848  0.59914413    -0.24100
H1271       H  0.67400848  0.68753142  0.38899398     0.09400
H1272       H  0.66679398  0.69152764  0.46528359     0.13000
H1273       H  0.70834685  0.59383070  0.40590170     0.11700
H1274       H  0.71411161  0.57113509  0.47841544     0.12900
H1275       H  0.70569603  0.57282649  0.55623942     0.11900
H1276       H  0.65005776  0.68821184  0.52872609     0.09000
H1277       H  0.63498646  0.68456759  0.60104298     0.12300
H1278       H  0.68387092  0.59751546  0.61881300     0.14100
C1279       C  0.00406368  0.84950894  0.16183403    -0.01400
C1280       C  0.99521242  0.82285770  0.18651495    -0.09400
C1281       C  0.01283171  0.79565743  0.18751450    -0.18200
C1282       C  0.04022054  0.79358913  0.16358289     0.04200
C1283       C  0.04764488  0.81901616  0.13522517     0.18400
C1284       C  0.02892778  0.84583923  0.13321433    -0.19600
C1285       C  0.07434378  0.81802464  0.11021117    -0.20900
C1286       C  0.09440966  0.79280957  0.11395838    -0.19500
C1287       C  0.08817070  0.76779530  0.14253998     0.19700
C1288       C  0.06071480  0.76751038  0.16725537     0.01900
C1289       C  0.05548633  0.74155750  0.19545054    -0.14200
C1290       C  0.07695500  0.71738751  0.19965283    -0.11900
C1291       C  0.10435894  0.71809323  0.17597289     0.01400
C1292       C  0.10954136  0.74329603  0.14703659    -0.24100
H1293       H  0.97450083  0.82238540  0.20548415     0.09400
H1294       H  0.00454779  0.77679007  0.20794277     0.13000
H1295       H  0.03504025  0.86506276  0.11149273     0.11700
H1296       H  0.08015885  0.83725930  0.08837911     0.12900
H1297       H  0.11521436  0.79310030  0.09480189     0.11900
H1298       H  0.03522122  0.73939716  0.21518972     0.09000
H1299       H  0.07214076  0.69818357  0.22199497     0.12300
H1300       H  0.13052406  0.74414904  0.12826457     0.14100
C1301       C  0.10666353  0.54009921  0.19579263    -0.01400
C1302       C  0.07495687  0.54497680  0.19874144    -0.09400
C1303       C  0.05447918  0.51988886  0.19700369    -0.18200
C1304       C  0.06522730  0.98886940  0.19310461     0.04200
C1305       C  0.09750639  0.98406358  0.19179365     0.18400
C1306       C  0.11770185  0.50951834  0.19242950    -0.19600
C1307       C  0.10951967  0.95384533  0.18987151    -0.20900
C1308       C  0.09016387  0.92820222  0.18856664    -0.19500
C1309       C  0.05827776  0.93216006  0.18775802     0.19700
C1310       C  0.04528213  0.96247695  0.19004475     0.01900
C1311       C  0.01297520  0.96494846  0.18846783    -0.14200
C1312       C  0.99467989  0.93874838  0.18168520    -0.11900
C1313       C  0.00760867  0.90887892  0.17616087     0.01400
C1314       C  0.03947619  0.90586419  0.18326261    -0.24100
H1315       H  0.06589913  0.56838906  0.20153488     0.09400
H1316       H  0.03041778  0.52549220  0.19895713     0.13000
H1317       H  0.14224116  0.50545755  0.19084397     0.11700
H1318       H  0.13410066  0.95000162  0.18931179     0.12900
H1319       H  0.10025731  0.90513319  0.18682411     0.11900
H1320       H  0.00119222  0.98696611  0.19075374     0.09000
H1321       H  0.97012552  0.94205132  0.17857516     0.12300
H1322       H  0.05042052  0.88330403  0.18451244     0.14100
C1323       C  0.97285219  0.88666320  0.11676674    -0.01400
C1324       C  0.98048289  0.91294732  0.09045554    -0.09400
C1325       C  0.97182500  0.91544821  0.04710754    -0.18200
C1326       C  0.95641632  0.89103586  0.02662668     0.04200
C1327       C  0.94871917  0.86426158  0.05226534     0.18400
C1328       C  0.95589612  0.86280360  0.09689028    -0.19600
C1329       C  0.93526466  0.83850626  0.03267153    -0.20900
C1330       C  0.93049867  0.83836944  0.98803598    -0.19500
C1331       C  0.93805305  0.86440641  0.96189189     0.19700
C1332       C  0.95001184  0.89157217  0.98113731     0.01900
C1333       C  0.95558131  0.91790869  0.95383957    -0.14200
C1334       C  0.95129247  0.91670139  0.90914335    -0.11900
C1335       C  0.94142743  0.88927036  0.88969400     0.01400
C1336       C  0.93426341  0.86331647  0.91655957    -0.24100
H1337       H  0.99454288  0.93163814  0.10186667     0.09400
H1338       H  0.97929322  0.93617903  0.02977949     0.13000
H1339       H  0.95005050  0.84200352  0.11573140     0.11700
H1340       H  0.92936412  0.81786604  0.05178930     0.12900
H1341       H  0.92100928  0.81764604  0.97382322     0.11900
H1342       H  0.96330380  0.93987691  0.96604146     0.09000
H1343       H  0.95661333  0.93726427  0.88956207     0.12300
H1344       H  0.92605502  0.84209179  0.90217033     0.14100
loop_ 
_geom_bond_atom_site_label_1 
_geom_bond_atom_site_label_2 
_geom_bond_distance 
_geom_bond_site_symmetry_2 
_ccdc_geom_bond_type 
C1           C66   1.551       .  S
C1          C607   1.564   1_655  S
C1          C641   1.564   1_655  S
C1          C651   1.565       .  S
C2           C31   1.547       .  S
C2          C541   1.560       .  S
C2          C563   1.558       .  S
C2          C597   1.560       .  S
O3           C19   1.279       .  A
O3           Zn9   2.044       .  S
C4           O20   1.276       .  A
C4           O17   1.273       .  A
C4          C519   1.476       .  S
O5           C18   1.276       .  A
O5          Cd12   2.081       .  S
O6           C24   1.275       .  A
O6          Cd15   2.060       .  S
O7           C21   1.278       .  A
O7          Cd11   2.091       .  S
O8           C19   1.277       .  A
O8          Cd11   2.089       .  S
Zn9          O20   2.028       .  S
Zn9          O22   2.021       .  S
Zn9          O14   1.946       .  S
O10          C21   1.273       .  A
O10         Cd15   2.062       .  S
Cd11         O13   2.075       .  S
Cd11         O14   2.009       .  S
Cd12         O16   2.074       .  S
Cd12         O25   2.095       .  S
Cd12         O14   2.016       .  S
O13          C23   1.277       .  A
O14         Cd15   1.993       .  S
Cd15         O17   2.059       .  S
O16          C23   1.277       .  A
C18          O22   1.275       .  A
C18         C453   1.480       .  S
C19         C585   1.492       .  S
C21         C509   1.487       .  S
C23         C431   1.485       .  S
C24          O25   1.276       .  A
C24         C475   1.486       .  S
C26          C27   1.523       .  S
C26          C32   1.540       .  S
C26          C30   1.528       .  S
C26         C487   1.529       .  S
C27          H34   1.087       .  S
C27          C28   1.362       .  D
C28          C29   1.544       .  S
C28         C409   1.484       .  S
C29          C33   1.537       .  S
C29          C31   1.560       .  S
C29          H35   1.108       .  S
C30          H36   1.084       .  S
C30          C31   1.382       .  D
C32          H37   1.086       .  S
C32          C33   1.363       .  D
C33         C387   1.475       .  S
O38          C54   1.278       .  A
O38         Zn44   2.050       .  S
C39          O55   1.278       .  A
C39          O52   1.273       .  A
C39         C421   1.485       .  S
O40          C53   1.279       .  A
O40         Cd47   2.092   1_455  S
O41          C59   1.274       .  A
O41         Cd50   2.053       .  S
O42          C56   1.277       .  A
O42         Cd46   2.088       .  S
O43          C54   1.279       .  A
O43         Cd46   2.089       .  S
Zn44         O55   2.041       .  S
Zn44         O57   2.035       .  S
Zn44         O49   1.960       .  S
O45          C56   1.275       .  A
O45         Cd50   2.078       .  S
Cd46         O48   2.061       .  S
Cd46         O49   1.999       .  S
Cd47         O51   2.101   1_655  S
Cd47         O60   2.110       .  S
Cd47         O49   2.030       .  S
O48          C58   1.275   1_655  A
O49         Cd50   1.996       .  S
Cd50         O52   2.056       .  S
O51          C58   1.279       .  A
C53          O57   1.277   1_455  A
C53         C343   1.493       .  S
C54         C663   1.494       .  S
C56         C399   1.488       .  S
C58         C321   1.480       .  S
C59          O60   1.279       .  A
C59         C365   1.489       .  S
C61          C62   1.534       .  S
C61          C67   1.526       .  S
C61          C65   1.534       .  S
C61         C377   1.529       .  S
C62          H69   1.087       .  S
C62          C63   1.360       .  D
C63          C64   1.536       .  S
C63         C531   1.469       .  S
C64          C68   1.543       .  S
C64          C66   1.559       .  S
C64          H70   1.108       .  S
C65          H71   1.084       .  S
C65          C66   1.387       .  D
C67          H72   1.088       .  S
C67          C68   1.359       .  D
C68         C497   1.482       .  S
C73         C138   1.550       .  S
C73         C299   1.565       .  S
C73         C443   1.558       .  S
C73         C465   1.559       .  S
C74         C103   1.553       .  S
C74         C277   1.560       .  S
C74         C333   1.566       .  S
C74         C355   1.561       .  S
O75          C91   1.278       .  A
O75         Zn81   2.039       .  S
C76          O92   1.276       .  A
C76          O89   1.272       .  A
C76         C267   1.475       .  S
O77          C90   1.277       .  A
O77         Cd84   2.091       .  S
O78          C96   1.274       .  A
O78         Cd87   2.053       .  S
O79          C93   1.279       .  A
O79         Cd83   2.094       .  S
O80          C91   1.277       .  A
O80         Cd83   2.087       .  S
Zn81         O92   2.025       .  S
Zn81         O94   2.017       .  S
Zn81         O86   1.947       .  S
O82          C93   1.274       .  A
O82         Cd87   2.067       .  S
Cd83         O85   2.077       .  S
Cd83         O86   2.006       .  S
Cd84         O88   2.086       .  S
Cd84         O97   2.101       .  S
Cd84         O86   2.021       .  S
O85          C95   1.277       .  A
O86         Cd87   1.997       .  S
Cd87         O89   2.060       .  S
O88          C95   1.279       .  A
C90          O94   1.274       .  A
C90         C629   1.483       .  S
C91         C289   1.489       .  S
C93         C245   1.489       .  S
C95         C619   1.488       .  S
C96          O97   1.278       .  A
C96         C211   1.488       .  S
C98          C99   1.531       .  S
C98         C104   1.532       .  S
C98         C102   1.532       .  S
C98         C223   1.528       .  S
C99         H106   1.087       .  S
C99         C100   1.360       .  D
C100        C101   1.538       .  S
C100        C201   1.476       .  S
C101        C105   1.545       .  S
C101        C103   1.565       .  S
C101        H107   1.107       .  S
C102        H108   1.083       .  S
C102        C103   1.381       .  D
C104        H109   1.087       .  S
C104        C105   1.361       .  D
C105        C167   1.484       .  S
O110        C126   1.279       .  A
O110       Zn116   2.062       .  S
C111        O127   1.280       .  A
C111        O124   1.278       .  A
C111        C311   1.495       .  S
O112        C125   1.276       .  A
O112       Cd119   2.082       .  S
O113        C131   1.276       .  A
O113       Cd122   2.073       .  S
O114        C128   1.272       .  A
O114       Cd118   2.054       .  S
O115        C126   1.274       .  A
O115       Cd118   2.068       .  S
Zn116       O127   2.052       .  S
Zn116       O129   2.013       .  S
Zn116       O121   1.947       .  S
O117        C128   1.276       .  A
O117       Cd122   2.086       .  S
Cd118       O120   2.055       .  S
Cd118       O121   1.990       .  S
Cd119       O123   2.100       .  S
Cd119       O132   2.084       .  S
Cd119       O121   2.027       .  S
O120        C130   1.274       .  A
O121       Cd122   2.008       .  S
Cd122       O124   2.096       .  S
O123        C130   1.277       .  A
C125        O129   1.276       .  A
C125        C575   1.475       .  S
C126        C179   1.493       .  S
C128        C189   1.469       .  S
C130        C145   1.487       .  S
C131        O132   1.277       .  A
C131        C553   1.488       .  S
C133        C134   1.535       .  S
C133        C139   1.527       .  S
C133        C137   1.535       .  S
C133        C157   1.530       .  S
C134        H141   1.087       .  S
C134        C135   1.360       .  D
C135        C136   1.536       .  S
C135        C255   1.470       .  S
C136        C140   1.543       .  S
C136        C138   1.558       .  S
C136        H142   1.108       .  S
C137        H143   1.084       .  S
C137        C138   1.387       .  D
C139        H144   1.088       .  S
C139        C140   1.359       .  D
C140        C233   1.484       .  S
C145        C146   1.401       .  A
C145        C150   1.407       .  A
C146        C147   1.389       .  A
C146        H159   1.083       .  S
C147        C148   1.412       .  A
C147        H160   1.077       .  S
C148        C154   1.428       .  A
C148        C149   1.421       .  A
C149        C151   1.403       .  A
C149        C150   1.415       .  A
C150        H161   1.084       .  S
C151        C152   1.398       .  A
C151        H162   1.084       .  S
C152        C153   1.403   1_556  A
C152        H163   1.084   1_556  S
C153        C154   1.423   1_554  A
C153        C158   1.418       .  A
C154        C155   1.408   1_556  A
C155        C156   1.386       .  A
C155        H164   1.077       .  S
C156        C157   1.405       .  A
C156        H165   1.084       .  S
C157        C158   1.409       .  A
C158        H166   1.081       .  S
C167        C168   1.397       .  A
C167        C172   1.402       .  A
C168        C169   1.405       .  A
C168        H181   1.083       .  S
C169        C170   1.421       .  A
C169        H182   1.078       .  S
C170        C176   1.437       .  A
C170        C171   1.421       .  A
C171        C173   1.400       .  A
C171        C172   1.404       .  A
C172        H183   1.085       .  S
C173        C174   1.390       .  A
C173        H184   1.084       .  S
C174        C175   1.399       .  A
C174        H185   1.084       .  S
C175        C176   1.425       .  A
C175        C180   1.411       .  A
C176        C177   1.414       .  A
C177        C178   1.400       .  A
C177        H186   1.078       .  S
C178        C179   1.405       .  A
C178        H187   1.083       .  S
C179        C180   1.403       .  A
C180        H188   1.084       .  S
C189        C190   1.398       .  A
C189        C194   1.398       .  A
C190        C863   1.398       .  A
C190        H203   1.084       .  S
C191        C192   1.416       .  A
C191        C862   1.398   1_545  A
C191        H204   1.078       .  S
C192        C198   1.429       .  A
C192        C865   1.423   1_545  A
C193        C195   1.399       .  A
C193        C194   1.403       .  A
C193        C864   1.423       .  A
C194        H205   1.085       .  S
C195        C868   1.389       .  A
C195        H206   1.084       .  S
C196        C197   1.399   1_565  A
C196        C867   1.389       .  A
C196        H207   1.084       .  S
C197        C198   1.422       .  A
C197        C202   1.403       .  A
C198        C199   1.416       .  A
C199        C200   1.398       .  A
C199        H208   1.078       .  S
C200        C201   1.398       .  A
C200        H209   1.082       .  S
C201        C202   1.399       .  A
C202        H210   1.085       .  S
C211        C212   1.404       .  A
C211        C216   1.402       .  A
C212        C213   1.405       .  A
C212        H225   1.083       .  S
C213        C214   1.417       .  A
C213        H226   1.078       .  S
C214        C220   1.434       .  A
C214        C215   1.422       .  A
C215        C217   1.397       .  A
C215        C216   1.399       .  A
C216        H227   1.085       .  S
C217        C218   1.384       .  A
C217        H228   1.084       .  S
C218        C219   1.397       .  A
C218        H229   1.084       .  S
C219        C220   1.420       .  A
C219        C224   1.397       .  A
C220        C221   1.417       .  A
C221        C222   1.405       .  A
C221        H230   1.078       .  S
C222        C223   1.406       .  A
C222        H231   1.079       .  S
C223        C224   1.404       .  A
C224        H232   1.085       .  S
C233        C234   1.398       .  A
C233        C238   1.400       .  A
C234        C235   1.407       .  A
C234        H247   1.083       .  S
C235        C236   1.421       .  A
C235        H248   1.078       .  S
C236        C242   1.435       .  A
C236        C237   1.421       .  A
C237        C239   1.398       .  A
C237        C238   1.399       .  A
C238        H249   1.085       .  S
C239        C240   1.386       .  A
C239        H250   1.084       .  S
C240        C241   1.398       .  A
C240        H251   1.084       .  S
C241        C242   1.425       .  A
C241        C246   1.405       .  A
C242        C243   1.414       .  A
C243        C244   1.402       .  A
C243        H252   1.078       .  S
C244        C245   1.405       .  A
C244        H253   1.083       .  S
C245        C246   1.401       .  A
C246        H254   1.084       .  S
C255        C256   1.396       .  A
C255        C260   1.399       .  A
C256        C257   1.395       .  A
C256        H269   1.083       .  S
C257        C258   1.415       .  A
C257        H270   1.078       .  S
C258        C259   1.422       .  A
C258        C936   1.427       .  A
C259        C260   1.405       .  A
C259        C933   1.400       .  A
C260        H271   1.085       .  S
C261        C262   1.392       .  A
C261        C931   1.400   1_545  A
C261        H272   1.084       .  S
C262        C263   1.401       .  A
C262        H273   1.084       .  S
C263        C264   1.422   1_545  A
C263        C268   1.406       .  A
C264        C265   1.414       .  A
C264        C930   1.427       .  A
C265        C266   1.394   1_565  A
C265        H946   1.077       .  S
C266        C267   1.398       .  A
C266        H275   1.084       .  S
C267        C268   1.402       .  A
C268        H276   1.084       .  S
H274        C937   1.077       .  S
C277        C278   1.414       .  A
C277        C282   1.412       .  A
C278        C279   1.395       .  A
C278        H291   1.077       .  S
C279        C280   1.409       .  A
C279        H292   1.077       .  S
C280        C286   1.434       .  A
C280        C281   1.421       .  A
C281        C283   1.400       .  A
C281        C282   1.411       .  A
C282        H293   1.084       .  S
C283        C284   1.394       .  A
C283        H294   1.084       .  S
C284        C285   1.401       .  A
C284        H295   1.084       .  S
C285        C286   1.421       .  A
C285        C290   1.411       .  A
C286        C287   1.416       .  A
C287        C288   1.399   1_556  A
C287        H296   1.077       .  S
C288        C289   1.402       .  A
C288        H297   1.083       .  S
C289        C290   1.405   1_554  A
C290        H298   1.084   1_556  S
C299        C300   1.414       .  A
C299        C304   1.416       .  A
C300        C301   1.395       .  A
C300        H313   1.077       .  S
C301        C302   1.409       .  A
C301        H314   1.078       .  S
C302        C308   1.435       .  A
C302        C303   1.420       .  A
C303        C305   1.402       .  A
C303        C304   1.415       .  A
C304        H315   1.085       .  S
C305        C306   1.397       .  A
C305        H316   1.084       .  S
C306        C307   1.403       .  A
C306        H317   1.084       .  S
C307        C308   1.421       .  A
C307        C312   1.415       .  A
C308        C309   1.415       .  A
C309        C310   1.398       .  A
C309        H318   1.077       .  S
C310        C311   1.402       .  A
C310        H319   1.083       .  S
C311        C312   1.409       .  A
C312        H320   1.084       .  S
C321        C322   1.400       .  A
C321        C326   1.403       .  A
C322        C323   1.393       .  A
C322        H335   1.084   1_455  S
C323        C996   1.414       .  A
C323        H336   1.077       .  S
C324        C330   1.430       .  A
C324        C325   1.423   1_545  A
C324        C995   1.414       .  A
C325        C327   1.402       .  A
C325        C998   1.412       .  A
C326        C997   1.412       .  A
C326        H337   1.084       .  S
C327        C328   1.395   1_565  A
C327        H338   1.084       .  S
C328        C329   1.402       .  A
C328        H339   1.084       .  S
C329        C330   1.419       .  A
C329        C334   1.411       .  A
C330        C331   1.409       .  A
C331        C332   1.393       .  A
C331        H340   1.077       .  S
C332        C333   1.412       .  A
C332        H341   1.079       .  S
C333        C334   1.415       .  A
C334        H342   1.084       .  S
C343        C344   1.404       .  A
C343        C348   1.405       .  A
C344        C345   1.400       .  A
C344        H357   1.083   1_455  S
C345        C346   1.415       .  A
C345        H358   1.078       .  S
C346        C352   1.435       .  A
C346        C347   1.422       .  A
C347        C349   1.400       .  A
C347        C348   1.410       .  A
C348        H359   1.084       .  S
C349        C350   1.391       .  A
C349        H360   1.084       .  S
C350        C351   1.400       .  A
C350        H361   1.084       .  S
C351        C352   1.421       .  A
C351        C356   1.409       .  A
C352        C353   1.413       .  A
C353        C354   1.398       .  A
C353        H362   1.078       .  S
C354        C355   1.411       .  A
C354        H363   1.083       .  S
C355        C356   1.412       .  A
C356        H364   1.081       .  S
C365        C366   1.402       .  A
C365        C370   1.408       .  A
C366        C367   1.389       .  A
C366        H379   1.083       .  S
C367        C368   1.412       .  A
C367        H380   1.077       .  S
C368        C374   1.429       .  A
C368        C369   1.421       .  A
C369        C371   1.403   1_655  A
C369        C370   1.416       .  A
C370        H381   1.084   1_655  S
C371        C372   1.398       .  A
C371        H382   1.084       .  S
C372        C373   1.402   1_455  A
C372        H383   1.084       .  S
C373        C374   1.423       .  A
C373        C378   1.418       .  A
C374        C375   1.409       .  A
C375        C376   1.385       .  A
C375        H384   1.077       .  S
C376        C377   1.405       .  A
C376        H385   1.084       .  S
C377        C378   1.408       .  A
C378        H386   1.081       .  S
C387        C388   1.396       .  A
C387        C392   1.399       .  A
C388        C389   1.401       .  A
C388        H401   1.084       .  S
C389        C390   1.419       .  A
C389        H402   1.077       .  S
C390        C396   1.434       .  A
C390        C391   1.423       .  A
C391        C393   1.399       .  A
C391        C392   1.404       .  A
C392        H403   1.085       .  S
C393        C394   1.390       .  A
C393        H404   1.084       .  S
C394        C395   1.400       .  A
C394        H405   1.084       .  S
C395        C396   1.423       .  A
C395       C1072   1.407       .  A
C396       C1069   1.415   1_545  A
C397        C398   1.400       .  A
C397       C1068   1.415       .  A
C397        H406   1.077       .  S
C398        C399   1.403       .  A
C398        H407   1.083       .  S
C399        C400   1.403       .  A
C400       C1067   1.407       .  A
C400        H408   1.084       .  S
C409        C410   1.397       .  A
C409        C414   1.402       .  A
C410        C411   1.405       .  A
C410        H423   1.083       .  S
C411        C412   1.421       .  A
C411        H424   1.078       .  S
C412        C418   1.433       .  A
C412        C413   1.420       .  A
C413        C415   1.399       .  A
C413        C414   1.397       .  A
C414        H425   1.085       .  S
C415        C416   1.386       .  A
C415        H426   1.084       .  S
C416        C417   1.397       .  A
C416        H427   1.084       .  S
C417        C418   1.425       .  A
C417        C422   1.404       .  A
C418        C419   1.413       .  A
C419        C420   1.399       .  A
C419        H428   1.078       .  S
C420        C421   1.405       .  A
C420        H429   1.083       .  S
C421        C422   1.400       .  A
C422        H430   1.084       .  S
C431        C432   1.402       .  A
C431        C436   1.404       .  A
C432        C433   1.396       .  A
C432        H445   1.083       .  S
C433       C1106   1.414   1_545  A
C433        H446   1.077       .  S
C434        C440   1.431       .  A
C434        C435   1.422       .  A
C434       C1105   1.415       .  A
C435        C437   1.400       .  A
C435       C1108   1.406       .  A
C436       C1107   1.406   1_545  A
C436        H447   1.084       .  S
C437        C438   1.390       .  A
C437        H448   1.084       .  S
C438        C439   1.400       .  A
C438        H449   1.084       .  S
C439        C440   1.420       .  A
C439        C444   1.405       .  A
C440        C441   1.412       .  A
C441        C442   1.396       .  A
C441       H1122   1.077       .  S
C442        C443   1.411       .  A
C442        H451   1.078       .  S
C443        C444   1.411       .  A
C444        H452   1.085       .  S
H450       C1113   1.077       .  S
C453        C454   1.401       .  A
C453        C458   1.402       .  A
C454        C455   1.396       .  A
C454        H467   1.084       .  S
C455        C456   1.414       .  A
C455        H468   1.078       .  S
C456        C462   1.428       .  A
C456        C457   1.422       .  A
C457        C459   1.401       .  A
C457        C458   1.408       .  A
C458        H469   1.084       .  S
C459        C460   1.393       .  A
C459        H470   1.084       .  S
C460        C461   1.400       .  A
C460        H471   1.084       .  S
C461        C462   1.419       .  A
C461        C466   1.406       .  A
C462        C463   1.409       .  A
C463        C464   1.394       .  A
C463        H472   1.078       .  S
C464        C465   1.412       .  A
C464        H473   1.079       .  S
C465        C466   1.412       .  A
C466        H474   1.085       .  S
C475        C476   1.404       .  A
C475        C480   1.400       .  A
C476        C477   1.406   1_554  A
C476        H489   1.083       .  S
C477        C478   1.418       .  A
C477        H490   1.078       .  S
C478        C484   1.436       .  A
C478        C479   1.423       .  A
C479        C481   1.397       .  A
C479        C480   1.399   1_556  A
C480        H491   1.085       .  S
C481        C482   1.383       .  A
C481        H492   1.084       .  S
C482        C483   1.397       .  A
C482        H493   1.084       .  S
C483        C484   1.420       .  A
C483        C488   1.397       .  A
C484        C485   1.418       .  A
C485        C486   1.407       .  A
C485        H494   1.078       .  S
C486        C487   1.407       .  A
C486        H495   1.081       .  S
C487        C488   1.404       .  A
C488        H496   1.084       .  S
C497        C498   1.397       .  A
C497        C502   1.401       .  A
C498        C499   1.405       .  A
C498        H511   1.083       .  S
C499        C500   1.421       .  A
C499       H1184   1.078       .  S
C500        C501   1.421       .  A
C500       C1178   1.434       .  A
C501        C503   1.399       .  A
C501        C502   1.398       .  A
C502        H513   1.085       .  S
C503        C504   1.387       .  A
C503        H514   1.084       .  S
C504        C505   1.398       .  A
C504        H515   1.084       .  S
C505       C1178   1.425       .  A
C505       C1182   1.405       .  A
C506        C507   1.414   1_565  A
C506       C1172   1.434       .  A
C506       C1177   1.425       .  A
C507        C508   1.400       .  A
C507        H516   1.078       .  S
C508        C509   1.405       .  A
C508        H517   1.083       .  S
C509        C510   1.400       .  A
C510       C1177   1.405   1_545  A
C510        H518   1.084       .  S
H512       C1171   1.078       .  S
C519        C520   1.400       .  A
C519        C524   1.400       .  A
C520        C521   1.396       .  A
C520        H533   1.083       .  S
C521        C522   1.414       .  A
C521        H534   1.077       .  S
C522        C528   1.430       .  A
C522        C523   1.423       .  A
C523        C525   1.399       .  A
C523        C524   1.404       .  A
C524        H535   1.085       .  S
C525        C526   1.389       .  A
C525        H536   1.084       .  S
C526        C527   1.399       .  A
C526        H537   1.084       .  S
C527        C528   1.422       .  A
C527        C532   1.402       .  A
C528        C529   1.417       .  A
C529        C530   1.398       .  A
C529        H538   1.077       .  S
C530        C531   1.396       .  A
C530        H539   1.084       .  S
C531        C532   1.397       .  A
C532        H540   1.083       .  S
C541        C542   1.409       .  A
C541        C546   1.412       .  A
C542        C543   1.396       .  A
C542        H555   1.083       .  S
C543        C544   1.413       .  A
C543        H556   1.077       .  S
C544        C550   1.432       .  A
C544        C545   1.420       .  A
C545        C547   1.401       .  A
C545        C546   1.406       .  A
C546        H557   1.080       .  S
C547        C548   1.391   1_545  A
C547        H558   1.084       .  S
C548        C549   1.400       .  A
C548        H559   1.084       .  S
C549        C550   1.423   1_565  A
C549       C1226   1.408       .  A
C550        C551   1.414       .  A
C551       C1224   1.396   1_545  A
C551        H560   1.077       .  S
C552        C553   1.403       .  A
C552       C1223   1.396       .  A
C552        H561   1.083       .  S
C553        C554   1.404       .  A
C554       C1221   1.408       .  A
C554        H562   1.084       .  S
C563        C564   1.410       .  A
C563        C568   1.413       .  A
C564        C565   1.390       .  A
C564        H577   1.080       .  S
C565        C566   1.409       .  A
C565        H578   1.078       .  S
C566        C572   1.426       .  A
C566        C567   1.418       .  A
C567        C569   1.401       .  A
C567        C568   1.409       .  A
C568        H579   1.084       .  S
C569        C570   1.395       .  A
C569        H580   1.084       .  S
C570        C571   1.402       .  A
C570        H581   1.084       .  S
C571        C572   1.422       .  A
C571        C576   1.410       .  A
C572        C573   1.413       .  A
C573        C574   1.391       .  A
C573        H582   1.077       .  S
C574        C575   1.398       .  A
C574        H583   1.084       .  S
C575        C576   1.403       .  A
C576        H584   1.084       .  S
C585        C586   1.402       .  A
C585        C590   1.408       .  A
C586        C587   1.398       .  A
C586        H599   1.083       .  S
C587        C588   1.415       .  A
C587        H600   1.078       .  S
C588        C594   1.433       .  A
C588        C589   1.421       .  A
C589        C591   1.402       .  A
C589        C590   1.413       .  A
C590        H601   1.084       .  S
C591        C592   1.396       .  A
C591        H602   1.084       .  S
C592        C593   1.401       .  A
C592        H603   1.084       .  S
C593        C594   1.420       .  A
C593        C598   1.413       .  A
C594        C595   1.409       .  A
C595        C596   1.395       .  A
C595        H604   1.078       .  S
C596        C597   1.414       .  A
C596        H605   1.077       .  S
C597        C598   1.414       .  A
C598        H606   1.084       .  S
C607        C608   1.413   1_455  A
C607        C612   1.411       .  A
C608        C609   1.395   1_655  A
C608        H621   1.077       .  S
C609        C610   1.409       .  A
C609        H622   1.078       .  S
C610        C616   1.432       .  A
C610        C611   1.421       .  A
C611        C613   1.399       .  A
C611        C612   1.409       .  A
C612        H623   1.085       .  S
C613        C614   1.392       .  A
C613        H624   1.084       .  S
C614        C615   1.401       .  A
C614        H625   1.084       .  S
C615        C616   1.421       .  A
C615        C620   1.407       .  A
C616        C617   1.416       .  A
C617        C618   1.398       .  A
C617        H626   1.077       .  S
C618        C619   1.402       .  A
C618        H627   1.083       .  S
C619        C620   1.405       .  A
C620        H628   1.084       .  S
C629        C630   1.401       .  A
C629        C634   1.402       .  A
C630        C631   1.401       .  A
C630        H643   1.083       .  S
C631       C1304   1.417   1_545  A
C631        H644   1.078       .  S
C632        C638   1.433       .  A
C632        C633   1.422       .  A
C632       C1303   1.417       .  A
C633        C635   1.399       .  A
C633       C1306   1.405       .  A
C634       C1305   1.405   1_545  A
C634        H645   1.085       .  S
C635        C636   1.389       .  A
C635        H646   1.084       .  S
C636        C637   1.400       .  A
C636        H647   1.084       .  S
C637        C638   1.420       .  A
C637        C642   1.405       .  A
C638        C639   1.413       .  A
C639        C640   1.399   1_455  A
C639        H648   1.077       .  S
C640        C641   1.412   1_655  A
C640        H649   1.083       .  S
C641        C642   1.411       .  A
C642        H650   1.077       .  S
C651        C652   1.414       .  A
C651        C656   1.416       .  A
C652        C653   1.395       .  A
C652        H665   1.076       .  S
C653        C654   1.408       .  A
C653        H666   1.078       .  S
C654        C660   1.434   1_554  A
C654        C655   1.420       .  A
C655        C657   1.402       .  A
C655        C656   1.416       .  A
C656        H667   1.084       .  S
C657        C658   1.397   1_554  A
C657        H668   1.084       .  S
C658        C659   1.402       .  A
C658        H669   1.084       .  S
C659        C660   1.421       .  A
C659        C664   1.414       .  A
C660        C661   1.415       .  A
C661        C662   1.398       .  A
C661        H670   1.078       .  S
C662        C663   1.402       .  A
C662        H671   1.083       .  S
C663        C664   1.408       .  A
C664        H672   1.084       .  S
C673        C738   1.551       .  S
C673       C1279   1.564   1_655  S
C673       C1313   1.564   1_655  S
C673       C1323   1.565       .  S
C674        C703   1.547       .  S
C674       C1213   1.560       .  S
C674       C1235   1.558       .  S
C674       C1269   1.560       .  S
O675        C691   1.279       .  A
O675       Zn681   2.044       .  S
C676        O692   1.276       .  A
C676        O689   1.273       .  A
C676       C1191   1.476       .  S
O677        C690   1.276       .  A
O677       Cd684   2.082       .  S
O678        C696   1.275       .  A
O678       Cd687   2.060       .  S
O679        C693   1.278       .  A
O679       Cd683   2.091       .  S
O680        C691   1.277       .  A
O680       Cd683   2.089       .  S
Zn681       O692   2.028       .  S
Zn681       O694   2.021       .  S
Zn681       O686   1.946       .  S
O682        C693   1.273       .  A
O682       Cd687   2.062       .  S
Cd683       O685   2.075       .  S
Cd683       O686   2.009       .  S
Cd684       O688   2.074       .  S
Cd684       O697   2.095       .  S
Cd684       O686   2.016       .  S
O685        C695   1.277       .  A
O686       Cd687   1.993       .  S
Cd687       O689   2.058       .  S
O688        C695   1.277       .  A
C690        O694   1.275       .  A
C690       C1125   1.480       .  S
C691       C1257   1.492       .  S
C693       C1181   1.487       .  S
C695       C1103   1.485       .  S
C696        O697   1.276       .  A
C696       C1147   1.486       .  S
C698        C699   1.523       .  S
C698        C704   1.540       .  S
C698        C702   1.528       .  S
C698       C1159   1.529       .  S
C699        H706   1.087       .  S
C699        C700   1.362       .  D
C700        C701   1.544       .  S
C700       C1081   1.484       .  S
C701        C705   1.537       .  S
C701        C703   1.560       .  S
C701        H707   1.108       .  S
C702        H708   1.084       .  S
C702        C703   1.382       .  D
C704        H709   1.086       .  S
C704        C705   1.363       .  D
C705       C1059   1.475       .  S
O710        C726   1.278       .  A
O710       Zn716   2.050       .  S
C711        O727   1.278       .  A
C711        O724   1.273       .  A
C711       C1093   1.485       .  S
O712        C725   1.279       .  A
O712       Cd719   2.092   1_455  S
O713        C731   1.274       .  A
O713       Cd722   2.053       .  S
O714        C728   1.277       .  A
O714       Cd718   2.088       .  S
O715        C726   1.279       .  A
O715       Cd718   2.088       .  S
Zn716       O727   2.041       .  S
Zn716       O729   2.035       .  S
Zn716       O721   1.960       .  S
O717        C728   1.275       .  A
O717       Cd722   2.078       .  S
Cd718       O720   2.061       .  S
Cd718       O721   1.999       .  S
Cd719       O723   2.101   1_655  S
Cd719       O732   2.110       .  S
Cd719       O721   2.030       .  S
O720        C730   1.275   1_655  A
O721       Cd722   1.996       .  S
Cd722       O724   2.056       .  S
O723        C730   1.279       .  A
C725        O729   1.277   1_455  A
C725       C1015   1.493       .  S
C726       C1335   1.494       .  S
C728       C1071   1.488       .  S
C730        C993   1.480       .  S
C731        O732   1.279       .  A
C731       C1037   1.489       .  S
C733        C734   1.534       .  S
C733        C739   1.526       .  S
C733        C737   1.534       .  S
C733       C1049   1.529       .  S
C734        H741   1.087       .  S
C734        C735   1.360       .  D
C735        C736   1.536       .  S
C735       C1203   1.469       .  S
C736        C740   1.543       .  S
C736        C738   1.559       .  S
C736        H742   1.108       .  S
C737        H743   1.084       .  S
C737        C738   1.387       .  D
C739        H744   1.088       .  S
C739        C740   1.359       .  D
C740       C1169   1.482       .  S
C745        C810   1.550       .  S
C745        C971   1.565       .  S
C745       C1115   1.558       .  S
C745       C1137   1.559       .  S
C746        C775   1.553       .  S
C746        C949   1.560       .  S
C746       C1005   1.566       .  S
C746       C1027   1.561       .  S
O747        C763   1.278       .  A
O747       Zn753   2.039       .  S
C748        O764   1.276       .  A
C748        O761   1.272       .  A
C748        C939   1.475       .  S
O749        C762   1.277       .  A
O749       Cd756   2.091       .  S
O750        C768   1.274       .  A
O750       Cd759   2.053       .  S
O751        C765   1.279       .  A
O751       Cd755   2.094       .  S
O752        C763   1.277       .  A
O752       Cd755   2.087       .  S
Zn753       O764   2.025       .  S
Zn753       O766   2.017       .  S
Zn753       O758   1.947       .  S
O754        C765   1.274       .  A
O754       Cd759   2.067       .  S
Cd755       O757   2.077       .  S
Cd755       O758   2.006       .  S
Cd756       O760   2.086       .  S
Cd756       O769   2.101       .  S
Cd756       O758   2.021       .  S
O757        C767   1.277       .  A
O758       Cd759   1.997       .  S
Cd759       O761   2.060       .  S
O760        C767   1.279       .  A
C762        O766   1.274       .  A
C762       C1301   1.483       .  S
C763        C961   1.489       .  S
C765        C917   1.489       .  S
C767       C1291   1.488       .  S
C768        O769   1.278       .  A
C768        C883   1.488       .  S
C770        C771   1.531       .  S
C770        C776   1.532       .  S
C770        C774   1.532       .  S
C770        C895   1.528       .  S
C771        H778   1.087       .  S
C771        C772   1.360       .  D
C772        C773   1.538       .  S
C772        C873   1.476       .  S
C773        C777   1.545       .  S
C773        C775   1.565       .  S
C773        H779   1.107       .  S
C774        H780   1.083       .  S
C774        C775   1.381       .  D
C776        H781   1.087       .  S
C776        C777   1.361       .  D
C777        C839   1.484       .  S
O782        C798   1.279       .  A
O782       Zn788   2.062       .  S
C783        O799   1.280       .  A
C783        O796   1.278       .  A
C783        C983   1.495       .  S
O784        C797   1.276       .  A
O784       Cd791   2.082       .  S
O785        C803   1.276       .  A
O785       Cd794   2.073       .  S
O786        C800   1.272       .  A
O786       Cd790   2.054       .  S
O787        C798   1.274       .  A
O787       Cd790   2.068       .  S
Zn788       O799   2.052       .  S
Zn788       O801   2.013       .  S
Zn788       O793   1.947       .  S
O789        C800   1.276       .  A
O789       Cd794   2.086       .  S
Cd790       O792   2.055       .  S
Cd790       O793   1.990       .  S
Cd791       O795   2.100       .  S
Cd791       O804   2.084       .  S
Cd791       O793   2.027       .  S
O792        C802   1.274       .  A
O793       Cd794   2.008       .  S
Cd794       O796   2.096       .  S
O795        C802   1.277       .  A
C797        O801   1.276       .  A
C797       C1247   1.475       .  S
C798        C851   1.493       .  S
C800        C861   1.469       .  S
C802        C817   1.487       .  S
C803        O804   1.277       .  A
C803       C1225   1.488       .  S
C805        C806   1.535       .  S
C805        C811   1.527       .  S
C805        C809   1.535       .  S
C805        C829   1.530       .  S
C806        H813   1.087       .  S
C806        C807   1.360       .  D
C807        C808   1.536       .  S
C807        C927   1.470       .  S
C808        C812   1.543       .  S
C808        C810   1.558       .  S
C808        H814   1.108       .  S
C809        H815   1.084       .  S
C809        C810   1.387       .  D
C811        H816   1.088       .  S
C811        C812   1.359       .  D
C812        C905   1.484       .  S
C817        C818   1.401       .  A
C817        C822   1.407       .  A
C818        C819   1.389       .  A
C818        H831   1.083       .  S
C819        C820   1.412       .  A
C819        H832   1.077       .  S
C820        C826   1.428       .  A
C820        C821   1.421       .  A
C821        C823   1.403       .  A
C821        C822   1.415       .  A
C822        H833   1.084       .  S
C823        C824   1.398       .  A
C823        H834   1.084       .  S
C824        C825   1.403   1_556  A
C824        H835   1.084   1_556  S
C825        C826   1.423   1_554  A
C825        C830   1.418       .  A
C826        C827   1.408   1_556  A
C827        C828   1.386       .  A
C827        H836   1.077       .  S
C828        C829   1.405       .  A
C828        H837   1.084       .  S
C829        C830   1.409       .  A
C830        H838   1.081       .  S
C839        C840   1.397       .  A
C839        C844   1.402       .  A
C840        C841   1.405       .  A
C840        H853   1.083       .  S
C841        C842   1.421       .  A
C841        H854   1.078       .  S
C842        C848   1.437       .  A
C842        C843   1.421       .  A
C843        C845   1.400       .  A
C843        C844   1.404       .  A
C844        H855   1.085       .  S
C845        C846   1.390       .  A
C845        H856   1.084       .  S
C846        C847   1.399       .  A
C846        H857   1.084       .  S
C847        C848   1.425       .  A
C847        C852   1.411       .  A
C848        C849   1.414       .  A
C849        C850   1.400       .  A
C849        H858   1.078       .  S
C850        C851   1.405       .  A
C850        H859   1.083       .  S
C851        C852   1.403       .  A
C852        H860   1.084       .  S
C861        C862   1.398       .  A
C861        C866   1.398       .  A
C862        H875   1.084   1_565  S
C863        C864   1.416       .  A
C863        H876   1.078       .  S
C864        C870   1.429       .  A
C865        C867   1.399       .  A
C865        C866   1.403       .  A
C866        H877   1.085       .  S
C867        H878   1.084       .  S
C868        C869   1.399       .  A
C868        H879   1.084       .  S
C869        C870   1.422       .  A
C869        C874   1.403       .  A
C870        C871   1.416       .  A
C871        C872   1.398       .  A
C871        H880   1.078       .  S
C872        C873   1.398       .  A
C872        H881   1.082       .  S
C873        C874   1.399       .  A
C874        H882   1.085       .  S
C883        C884   1.404       .  A
C883        C888   1.402       .  A
C884        C885   1.405       .  A
C884        H897   1.083       .  S
C885        C886   1.417       .  A
C885        H898   1.078       .  S
C886        C892   1.434       .  A
C886        C887   1.422       .  A
C887        C889   1.397       .  A
C887        C888   1.399       .  A
C888        H899   1.085       .  S
C889        C890   1.384       .  A
C889        H900   1.084       .  S
C890        C891   1.397       .  A
C890        H901   1.084       .  S
C891        C892   1.420       .  A
C891        C896   1.397       .  A
C892        C893   1.417       .  A
C893        C894   1.405       .  A
C893        H902   1.078       .  S
C894        C895   1.406       .  A
C894        H903   1.079       .  S
C895        C896   1.404       .  A
C896        H904   1.085       .  S
C905        C906   1.398       .  A
C905        C910   1.400       .  A
C906        C907   1.407       .  A
C906        H919   1.083       .  S
C907        C908   1.421       .  A
C907        H920   1.078       .  S
C908        C914   1.435       .  A
C908        C909   1.421       .  A
C909        C911   1.398       .  A
C909        C910   1.399       .  A
C910        H921   1.085       .  S
C911        C912   1.386       .  A
C911        H922   1.084       .  S
C912        C913   1.398       .  A
C912        H923   1.084       .  S
C913        C914   1.425       .  A
C913        C918   1.405       .  A
C914        C915   1.414       .  A
C915        C916   1.401       .  A
C915        H924   1.078       .  S
C916        C917   1.405       .  A
C916        H925   1.083       .  S
C917        C918   1.401       .  A
C918        H926   1.084       .  S
C927        C928   1.396       .  A
C927        C932   1.399       .  A
C928        C929   1.395       .  A
C928        H941   1.083       .  S
C929        C930   1.415       .  A
C929        H942   1.078       .  S
C930        C931   1.422       .  A
C931        C932   1.405       .  A
C932        H943   1.085       .  S
C933        C934   1.392       .  A
C933        H944   1.084       .  S
C934        C935   1.401       .  A
C934        H945   1.084       .  S
C935        C936   1.422       .  A
C935        C940   1.406       .  A
C936        C937   1.414       .  A
C937        C938   1.394       .  A
C938        C939   1.398       .  A
C938        H947   1.084       .  S
C939        C940   1.402       .  A
C940        H948   1.084       .  S
C949        C950   1.414       .  A
C949        C954   1.412       .  A
C950        C951   1.395       .  A
C950        H963   1.077       .  S
C951        C952   1.409       .  A
C951        H964   1.077       .  S
C952        C958   1.434       .  A
C952        C953   1.421       .  A
C953        C955   1.400       .  A
C953        C954   1.411       .  A
C954        H965   1.084       .  S
C955        C956   1.394       .  A
C955        H966   1.084       .  S
C956        C957   1.401       .  A
C956        H967   1.084       .  S
C957        C958   1.421       .  A
C957        C962   1.411       .  A
C958        C959   1.416       .  A
C959        C960   1.399   1_556  A
C959        H968   1.077       .  S
C960        C961   1.402       .  A
C960        H969   1.083       .  S
C961        C962   1.405   1_554  A
C962        H970   1.084   1_556  S
C971        C972   1.414       .  A
C971        C976   1.416       .  A
C972        C973   1.395       .  A
C972        H985   1.077       .  S
C973        C974   1.409       .  A
C973        H986   1.078       .  S
C974        C980   1.435       .  A
C974        C975   1.420       .  A
C975        C977   1.402       .  A
C975        C976   1.415       .  A
C976        H987   1.085       .  S
C977        C978   1.397       .  A
C977        H988   1.084       .  S
C978        C979   1.403       .  A
C978        H989   1.084       .  S
C979        C980   1.421       .  A
C979        C984   1.415       .  A
C980        C981   1.415       .  A
C981        C982   1.398       .  A
C981        H990   1.077       .  S
C982        C983   1.402       .  A
C982        H991   1.083       .  S
C983        C984   1.409       .  A
C984        H992   1.084       .  S
C993        C994   1.400   1_565  A
C993        C998   1.403       .  A
C994        C995   1.393       .  A
C994       H1007   1.084   1_455  S
C995       H1008   1.077       .  S
C996       C1002   1.430       .  A
C996        C997   1.423       .  A
C997        C999   1.402       .  A
C998       H1009   1.084       .  S
C999       C1000   1.395       .  A
C999       H1010   1.084       .  S
C1000      C1001   1.402       .  A
C1000      H1011   1.084       .  S
C1001      C1002   1.419       .  A
C1001      C1006   1.411       .  A
C1002      C1003   1.409       .  A
C1003      C1004   1.393       .  A
C1003      H1012   1.077       .  S
C1004      C1005   1.412       .  A
C1004      H1013   1.079       .  S
C1005      C1006   1.415       .  A
C1006      H1014   1.084       .  S
C1015      C1016   1.404       .  A
C1015      C1020   1.405       .  A
C1016      C1017   1.400       .  A
C1016      H1029   1.083   1_455  S
C1017      C1018   1.415       .  A
C1017      H1030   1.078       .  S
C1018      C1024   1.435       .  A
C1018      C1019   1.422       .  A
C1019      C1021   1.400       .  A
C1019      C1020   1.410       .  A
C1020      H1031   1.084       .  S
C1021      C1022   1.391       .  A
C1021      H1032   1.084       .  S
C1022      C1023   1.400       .  A
C1022      H1033   1.084       .  S
C1023      C1024   1.421       .  A
C1023      C1028   1.409       .  A
C1024      C1025   1.413       .  A
C1025      C1026   1.398       .  A
C1025      H1034   1.078       .  S
C1026      C1027   1.411       .  A
C1026      H1035   1.083       .  S
C1027      C1028   1.412       .  A
C1028      H1036   1.081       .  S
C1037      C1038   1.402       .  A
C1037      C1042   1.408       .  A
C1038      C1039   1.389       .  A
C1038      H1051   1.083       .  S
C1039      C1040   1.412       .  A
C1039      H1052   1.077       .  S
C1040      C1046   1.429       .  A
C1040      C1041   1.421       .  A
C1041      C1043   1.403   1_655  A
C1041      C1042   1.416       .  A
C1042      H1053   1.084   1_655  S
C1043      C1044   1.398       .  A
C1043      H1054   1.084       .  S
C1044      C1045   1.402   1_455  A
C1044      H1055   1.084       .  S
C1045      C1046   1.423       .  A
C1045      C1050   1.418       .  A
C1046      C1047   1.408       .  A
C1047      C1048   1.385       .  A
C1047      H1056   1.077       .  S
C1048      C1049   1.405       .  A
C1048      H1057   1.084       .  S
C1049      C1050   1.408       .  A
C1050      H1058   1.081       .  S
C1059      C1060   1.396       .  A
C1059      C1064   1.399       .  A
C1060      C1061   1.401       .  A
C1060      H1073   1.084       .  S
C1061      C1062   1.419       .  A
C1061      H1074   1.077       .  S
C1062      C1068   1.434       .  A
C1062      C1063   1.423       .  A
C1063      C1065   1.399       .  A
C1063      C1064   1.404       .  A
C1064      H1075   1.085       .  S
C1065      C1066   1.390       .  A
C1065      H1076   1.084       .  S
C1066      C1067   1.400       .  A
C1066      H1077   1.084       .  S
C1067      C1068   1.423       .  A
C1069      C1070   1.400       .  A
C1069      H1078   1.077       .  S
C1070      C1071   1.403       .  A
C1070      H1079   1.083       .  S
C1071      C1072   1.403   1_565  A
C1072      H1080   1.084       .  S
C1081      C1082   1.397       .  A
C1081      C1086   1.402       .  A
C1082      C1083   1.405       .  A
C1082      H1095   1.083       .  S
C1083      C1084   1.421       .  A
C1083      H1096   1.078       .  S
C1084      C1090   1.433       .  A
C1084      C1085   1.420       .  A
C1085      C1087   1.399       .  A
C1085      C1086   1.397       .  A
C1086      H1097   1.085       .  S
C1087      C1088   1.386       .  A
C1087      H1098   1.084       .  S
C1088      C1089   1.397       .  A
C1088      H1099   1.084       .  S
C1089      C1090   1.425       .  A
C1089      C1094   1.404       .  A
C1090      C1091   1.413       .  A
C1091      C1092   1.399       .  A
C1091      H1100   1.078       .  S
C1092      C1093   1.405       .  A
C1092      H1101   1.083       .  S
C1093      C1094   1.400       .  A
C1094      H1102   1.084       .  S
C1103      C1104   1.402       .  A
C1103      C1108   1.404       .  A
C1104      C1105   1.396       .  A
C1104      H1117   1.083       .  S
C1105      H1118   1.077       .  S
C1106      C1112   1.431       .  A
C1106      C1107   1.422       .  A
C1107      C1109   1.400       .  A
C1108      H1119   1.084       .  S
C1109      C1110   1.390       .  A
C1109      H1120   1.084       .  S
C1110      C1111   1.400       .  A
C1110      H1121   1.084       .  S
C1111      C1112   1.420       .  A
C1111      C1116   1.405       .  A
C1112      C1113   1.412       .  A
C1113      C1114   1.396       .  A
C1114      C1115   1.411       .  A
C1114      H1123   1.078       .  S
C1115      C1116   1.411       .  A
C1116      H1124   1.085       .  S
C1125      C1126   1.401       .  A
C1125      C1130   1.402       .  A
C1126      C1127   1.396       .  A
C1126      H1139   1.084       .  S
C1127      C1128   1.414       .  A
C1127      H1140   1.078       .  S
C1128      C1134   1.428       .  A
C1128      C1129   1.422       .  A
C1129      C1131   1.401       .  A
C1129      C1130   1.408       .  A
C1130      H1141   1.084       .  S
C1131      C1132   1.393       .  A
C1131      H1142   1.084       .  S
C1132      C1133   1.400       .  A
C1132      H1143   1.084       .  S
C1133      C1134   1.419       .  A
C1133      C1138   1.406       .  A
C1134      C1135   1.409       .  A
C1135      C1136   1.394       .  A
C1135      H1144   1.078       .  S
C1136      C1137   1.412       .  A
C1136      H1145   1.079       .  S
C1137      C1138   1.412       .  A
C1138      H1146   1.085       .  S
C1147      C1148   1.404       .  A
C1147      C1152   1.400       .  A
C1148      C1149   1.406   1_554  A
C1148      H1161   1.083       .  S
C1149      C1150   1.418       .  A
C1149      H1162   1.078       .  S
C1150      C1156   1.436       .  A
C1150      C1151   1.423       .  A
C1151      C1153   1.397       .  A
C1151      C1152   1.399   1_556  A
C1152      H1163   1.085       .  S
C1153      C1154   1.383       .  A
C1153      H1164   1.084       .  S
C1154      C1155   1.397       .  A
C1154      H1165   1.084       .  S
C1155      C1156   1.420       .  A
C1155      C1160   1.397       .  A
C1156      C1157   1.418       .  A
C1157      C1158   1.407       .  A
C1157      H1166   1.078       .  S
C1158      C1159   1.407       .  A
C1158      H1167   1.081       .  S
C1159      C1160   1.404       .  A
C1160      H1168   1.084       .  S
C1169      C1170   1.397       .  A
C1169      C1174   1.401       .  A
C1170      C1171   1.405       .  A
C1170      H1183   1.083       .  S
C1171      C1172   1.421       .  A
C1172      C1173   1.421       .  A
C1173      C1175   1.399       .  A
C1173      C1174   1.398       .  A
C1174      H1185   1.085       .  S
C1175      C1176   1.387       .  A
C1175      H1186   1.084       .  S
C1176      C1177   1.398       .  A
C1176      H1187   1.084       .  S
C1178      C1179   1.414       .  A
C1179      C1180   1.400       .  A
C1179      H1188   1.078       .  S
C1180      C1181   1.405       .  A
C1180      H1189   1.083       .  S
C1181      C1182   1.400       .  A
C1182      H1190   1.084       .  S
C1191      C1192   1.400       .  A
C1191      C1196   1.400       .  A
C1192      C1193   1.396       .  A
C1192      H1205   1.083       .  S
C1193      C1194   1.414       .  A
C1193      H1206   1.077       .  S
C1194      C1200   1.430       .  A
C1194      C1195   1.423       .  A
C1195      C1197   1.399       .  A
C1195      C1196   1.404       .  A
C1196      H1207   1.085       .  S
C1197      C1198   1.389       .  A
C1197      H1208   1.084       .  S
C1198      C1199   1.399       .  A
C1198      H1209   1.084       .  S
C1199      C1200   1.422       .  A
C1199      C1204   1.402       .  A
C1200      C1201   1.417       .  A
C1201      C1202   1.398       .  A
C1201      H1210   1.077       .  S
C1202      C1203   1.396       .  A
C1202      H1211   1.084       .  S
C1203      C1204   1.397       .  A
C1204      H1212   1.083       .  S
C1213      C1214   1.409       .  A
C1213      C1218   1.412       .  A
C1214      C1215   1.396       .  A
C1214      H1227   1.083       .  S
C1215      C1216   1.413       .  A
C1215      H1228   1.077       .  S
C1216      C1222   1.432       .  A
C1216      C1217   1.420       .  A
C1217      C1219   1.401       .  A
C1217      C1218   1.406       .  A
C1218      H1229   1.080       .  S
C1219      C1220   1.391       .  A
C1219      H1230   1.084       .  S
C1220      C1221   1.400       .  A
C1220      H1231   1.084       .  S
C1221      C1222   1.423       .  A
C1222      C1223   1.414       .  A
C1223      H1232   1.077       .  S
C1224      C1225   1.403       .  A
C1224      H1233   1.083       .  S
C1225      C1226   1.404       .  A
C1226      H1234   1.084       .  S
C1235      C1236   1.410       .  A
C1235      C1240   1.413       .  A
C1236      C1237   1.390       .  A
C1236      H1249   1.080       .  S
C1237      C1238   1.409       .  A
C1237      H1250   1.078       .  S
C1238      C1244   1.426       .  A
C1238      C1239   1.418       .  A
C1239      C1241   1.401       .  A
C1239      C1240   1.409       .  A
C1240      H1251   1.084       .  S
C1241      C1242   1.395       .  A
C1241      H1252   1.084       .  S
C1242      C1243   1.402       .  A
C1242      H1253   1.084       .  S
C1243      C1244   1.422       .  A
C1243      C1248   1.410       .  A
C1244      C1245   1.413       .  A
C1245      C1246   1.391       .  A
C1245      H1254   1.077       .  S
C1246      C1247   1.398       .  A
C1246      H1255   1.084       .  S
C1247      C1248   1.403       .  A
C1248      H1256   1.084       .  S
C1257      C1258   1.402       .  A
C1257      C1262   1.408       .  A
C1258      C1259   1.398       .  A
C1258      H1271   1.083       .  S
C1259      C1260   1.415       .  A
C1259      H1272   1.078       .  S
C1260      C1266   1.433       .  A
C1260      C1261   1.421       .  A
C1261      C1263   1.402       .  A
C1261      C1262   1.413       .  A
C1262      H1273   1.084       .  S
C1263      C1264   1.396       .  A
C1263      H1274   1.084       .  S
C1264      C1265   1.401       .  A
C1264      H1275   1.084       .  S
C1265      C1266   1.420       .  A
C1265      C1270   1.413       .  A
C1266      C1267   1.409       .  A
C1267      C1268   1.395       .  A
C1267      H1276   1.078       .  S
C1268      C1269   1.414       .  A
C1268      H1277   1.077       .  S
C1269      C1270   1.414       .  A
C1270      H1278   1.084       .  S
C1279      C1280   1.413   1_455  A
C1279      C1284   1.411       .  A
C1280      C1281   1.395   1_655  A
C1280      H1293   1.077       .  S
C1281      C1282   1.409       .  A
C1281      H1294   1.078       .  S
C1282      C1288   1.432       .  A
C1282      C1283   1.421       .  A
C1283      C1285   1.399       .  A
C1283      C1284   1.409       .  A
C1284      H1295   1.085       .  S
C1285      C1286   1.392       .  A
C1285      H1296   1.084       .  S
C1286      C1287   1.401       .  A
C1286      H1297   1.084       .  S
C1287      C1288   1.421       .  A
C1287      C1292   1.407       .  A
C1288      C1289   1.416       .  A
C1289      C1290   1.398       .  A
C1289      H1298   1.077       .  S
C1290      C1291   1.402       .  A
C1290      H1299   1.083       .  S
C1291      C1292   1.405       .  A
C1292      H1300   1.084       .  S
C1301      C1302   1.401       .  A
C1301      C1306   1.402       .  A
C1302      C1303   1.401       .  A
C1302      H1315   1.083       .  S
C1303      H1316   1.078       .  S
C1304      C1310   1.433       .  A
C1304      C1305   1.422       .  A
C1305      C1307   1.399       .  A
C1306      H1317   1.085       .  S
C1307      C1308   1.389       .  A
C1307      H1318   1.084       .  S
C1308      C1309   1.400       .  A
C1308      H1319   1.084       .  S
C1309      C1310   1.420       .  A
C1309      C1314   1.405       .  A
C1310      C1311   1.413       .  A
C1311      C1312   1.399   1_455  A
C1311      H1320   1.077       .  S
C1312      C1313   1.412   1_655  A
C1312      H1321   1.083       .  S
C1313      C1314   1.411       .  A
C1314      H1322   1.077       .  S
C1323      C1324   1.414       .  A
C1323      C1328   1.416       .  A
C1324      C1325   1.395       .  A
C1324      H1337   1.076       .  S
C1325      C1326   1.408       .  A
C1325      H1338   1.078       .  S
C1326      C1332   1.434   1_554  A
C1326      C1327   1.420       .  A
C1327      C1329   1.402       .  A
C1327      C1328   1.415       .  A
C1328      H1339   1.084       .  S
C1329      C1330   1.397   1_554  A
C1329      H1340   1.084       .  S
C1330      C1331   1.402       .  A
C1330      H1341   1.084       .  S
C1331      C1332   1.421       .  A
C1331      C1336   1.414       .  A
C1332      C1333   1.415       .  A
C1333      C1334   1.398       .  A
C1333      H1342   1.078       .  S
C1334      C1335   1.402       .  A
C1334      H1343   1.083       .  S
C1335      C1336   1.408       .  A
C1336      H1344   1.084       .  S
