geometry optimzed in LAMMPS
_audit_creation_date              2020-11-30 
_audit_creation_method            'lammps2cif' 
_symmetry_space_group_name_H-M    'P1' 
_symmetry_Int_Tables_number       1 
_symmetry_cell_setting            triclinic 
loop_ 
_symmetry_equiv_pos_as_xyz 
  x,y,z 
_cell_length_a                    55.01928068 
_cell_length_b                    54.99116015854119 
_cell_length_c                    55.01064787746493 
_cell_angle_alpha                 89.96053014335956 
_cell_angle_beta                  89.98398957488003 
_cell_angle_gamma                 89.98365165719437 
loop_ 
_atom_site_label 
_atom_site_type_symbol 
_atom_site_fract_x 
_atom_site_fract_y 
_atom_site_fract_z 
_atom_site_charge 
O1          O  0.84438531  0.87421490  0.59987431    -0.81300
C2          C  0.87699989  0.82383763  0.68326062     0.98100
O3          O  0.88305436  0.81909223  0.66160917    -0.70400
O4          O  0.84476020  0.81224697  0.63468983    -0.74000
Al5        Al  0.87244998  0.83238023  0.63117914     1.49000
C6          C  0.82368121  0.81656931  0.62689412     0.93300
O7          O  0.81260761  0.86479444  0.66021758    -0.80200
O8          O  0.87242015  0.90325846  0.65368111    -0.73800
Al9        Al  0.83000206  0.86914431  0.63077384     1.90100
O10         O  0.83949274  0.88134814  0.68437135    -0.72800
O11         O  0.90326392  0.86790879  0.66133819    -0.72700
O12         O  0.86871902  0.84446173  0.68871578    -0.78400
O13         O  0.90201991  0.84932769  0.62623311    -0.76600
O14         O  0.85755376  0.85820865  0.64380697    -1.12700
O15         O  0.86484615  0.83999269  0.59811714    -0.71900
C16         C  0.85578489  0.85840761  0.58775532     0.98800
C17         C  0.81831844  0.87330907  0.68071321     0.95200
Al18       Al  0.86999514  0.87300642  0.66978353     1.55600
O19         O  0.81759947  0.83798350  0.62127003    -0.76500
C20         C  0.91373327  0.86080744  0.64221176     0.99400
C21         C  0.85486305  0.91444189  0.64413455     0.94300
O22         O  0.83609203  0.90296973  0.63742408    -0.81800
O23         O  0.66304170  0.87362405  0.89481360    -0.81300
C24         C  0.63713217  0.82171711  0.80971254     0.98100
O25         O  0.63059500  0.81665135  0.83115744    -0.70400
O26         O  0.66806190  0.81169975  0.85968101    -0.74000
Al27       Al  0.63910835  0.83035304  0.86211302     1.49000
C28         C  0.68852814  0.81704712  0.86846085     0.93300
O29         O  0.69922688  0.86473516  0.83674248    -0.80200
O30         O  0.63794498  0.90180095  0.83983845    -0.73800
Al31       Al  0.67982932  0.86879329  0.86503943     1.90100
O32         O  0.67307513  0.88015839  0.81098335    -0.72800
O33         O  0.60843307  0.86536241  0.83071714    -0.72700
O34         O  0.64484738  0.84270888  0.80472172    -0.78400
O35         O  0.60841800  0.84596830  0.86549028    -0.76600
O36         O  0.65348560  0.85686381  0.85038217    -1.12700
O37         O  0.64468845  0.83821038  0.89572264    -0.71900
C38         C  0.65189781  0.85725298  0.90646934     0.98800
C39         C  0.69426818  0.87270301  0.81580123     0.95200
Al40       Al  0.64197158  0.87131533  0.82382854     1.55600
O41         O  0.69268916  0.83834355  0.87578702    -0.76500
C42         C  0.59720085  0.85755952  0.84915456     0.99400
C43         C  0.65480320  0.91329613  0.85029004     0.94300
O44         O  0.67350428  0.90224278  0.85767047    -0.81800
O45         O  0.85078584  0.63759417  0.89275202    -0.81300
C46         C  0.87454796  0.68985971  0.80757789     0.98100
O47         O  0.88234726  0.69426659  0.82869977    -0.70400
O48         O  0.84449654  0.69908077  0.85694590    -0.74000
Al49       Al  0.87356347  0.68076936  0.85952039     1.49000
C50         C  0.82394524  0.69324821  0.86526460     0.93300
O51         O  0.81415119  0.64366722  0.83441251    -0.80200
O52         O  0.87705076  0.61016686  0.83623921    -0.73800
Al53       Al  0.83398948  0.64123415  0.86263260     1.90100
O54         O  0.84054044  0.62955331  0.80825817    -0.72800
O55         O  0.90466944  0.64821839  0.82692203    -0.72700
O56         O  0.86611021  0.66920324  0.80237994    -0.78400
O57         O  0.90420382  0.66519775  0.86297310    -0.76600
O58         O  0.85961827  0.65403584  0.84773535    -1.12700
O59         O  0.86769512  0.67364871  0.89313704    -0.71900
C60         C  0.86096264  0.65467298  0.90418022     0.98800
C61         C  0.81903927  0.63550074  0.81357852     0.95200
Al62       Al  0.87118281  0.64042416  0.82073585     1.55600
O63         O  0.81988684  0.67168301  0.87214434    -0.76500
C64         C  0.91576078  0.65528485  0.84578049     0.99400
C65         C  0.86135454  0.59787560  0.84762465     0.94300
O66         O  0.84249711  0.60804996  0.85599271    -0.81800
O67         O  0.66490110  0.63386158  0.59958509    -0.81300
C68         C  0.63806844  0.68749052  0.68349987     0.98100
O69         O  0.63286062  0.69250667  0.66175160    -0.70400
O70         O  0.67232559  0.69462106  0.63562733    -0.74000
Al71       Al  0.64247192  0.67809136  0.63160166     1.49000
C72         C  0.69296258  0.68795011  0.62823306     0.93300
O73         O  0.69879168  0.63736158  0.65931431    -0.80200
O74         O  0.63541992  0.60680944  0.65532529    -0.73800
Al75       Al  0.68025591  0.63643011  0.63035739     1.90100
O76         O  0.67045805  0.62695029  0.68524734    -0.72800
O77         O  0.60790120  0.64522143  0.66121369    -0.72700
O78         O  0.64442301  0.66622425  0.68912287    -0.78400
O79         O  0.61111151  0.66463961  0.62649537    -0.76600
O80         O  0.65440083  0.65052725  0.64410730    -1.12700
O81         O  0.64937921  0.67043672  0.59834744    -0.71900
C82         C  0.65559239  0.65109073  0.58767555     0.98800
C83         C  0.69256050  0.63086959  0.68036809     0.95200
Al84       Al  0.64067659  0.63742022  0.67042666     1.55600
O85         O  0.69645495  0.66617702  0.62177213    -0.76500
C86         C  0.59828775  0.65380205  0.64214149     0.99400
C87         C  0.65078326  0.59407443  0.64406226     0.94300
O88         O  0.67005363  0.60366223  0.63610654    -0.81800
O89         O  0.87352500  0.16585944  0.59994186    -0.81300
C90         C  0.81812456  0.13788629  0.68198426     0.98100
O91         O  0.81381067  0.13162537  0.66027038    -0.70400
O92         O  0.81034140  0.16914955  0.63166617    -0.74000
Al93       Al  0.82897950  0.14040169  0.62998912     1.49000
C94         C  0.81605237  0.19001619  0.62427184     0.93300
O95         O  0.86302308  0.19897840  0.65956258    -0.80200
O96         O  0.89854627  0.13656192  0.65470356    -0.73800
Al97       Al  0.86779804  0.18097044  0.63045404     1.90100
O98         O  0.87849353  0.17173324  0.68411351    -0.72800
O99         O  0.86052582  0.10842879  0.66296406    -0.72700
O100        O  0.83887368  0.14559189  0.68801238    -0.78400
O101        O  0.84419751  0.10968738  0.62681504    -0.76600
O102        O  0.85493851  0.15422020  0.64338124    -1.12700
O103        O  0.83879464  0.14648542  0.59708918    -0.71900
C104        C  0.85812210  0.15435743  0.58740408     0.98800
C105        C  0.87136495  0.19316367  0.68010112     0.95200
Al106      Al  0.86803081  0.14157117  0.67015485     1.55600
O107        O  0.83791804  0.19496660  0.61947923    -0.76500
C108        C  0.85332801  0.09768891  0.64403909     0.99400
C109        C  0.91092460  0.15343089  0.64521747     0.94300
O110        O  0.90082384  0.17302224  0.63857553    -0.81800
O111        O  0.87109565  0.35003697  0.89287553    -0.81300
C112        C  0.82194121  0.37620239  0.80632124     0.98100
O113        O  0.81750686  0.38434970  0.82729868    -0.70400
O114        O  0.81052384  0.34624345  0.85514501    -0.74000
Al115      Al  0.82997066  0.37468488  0.85840939     1.49000
C116        C  0.81533287  0.32556320  0.86393657     0.93300
O117        O  0.86554049  0.31343017  0.83459898    -0.80200
O118        O  0.90143477  0.37456063  0.83672753    -0.73800
Al119      Al  0.86773801  0.33336572  0.86274375     1.90100
O120        O  0.88010773  0.33954907  0.80833125    -0.72800
O121        O  0.86528792  0.40418601  0.82706613    -0.72700
O122        O  0.84248273  0.36720270  0.80164396    -0.78400
O123        O  0.84702137  0.40464411  0.86250223    -0.76600
O124        O  0.85638711  0.35953481  0.84735759    -1.12700
O125        O  0.83575672  0.36831292  0.89212399    -0.71900
C126        C  0.85390523  0.36055240  0.90380757     0.98800
C127        C  0.87342013  0.31829453  0.81364309     0.95200
Al128      Al  0.87110561  0.37051170  0.82070810     1.55600
O129        O  0.83649798  0.32070560  0.87143903    -0.76500
C130        C  0.85858032  0.41554074  0.84585841     0.99400
C131        C  0.91258815  0.35857972  0.84886528     0.94300
O132        O  0.90132904  0.34033882  0.85714903    -0.81800
O133        O  0.63649038  0.16470543  0.89424741    -0.81300
C134        C  0.68749743  0.13354216  0.81055598     0.98100
O135        O  0.69318562  0.12914123  0.83233575    -0.70400
O136        O  0.69745973  0.16881220  0.85780386    -0.74000
Al137      Al  0.67972550  0.13954638  0.86264265     1.49000
C138        C  0.69147640  0.18986583  0.86456735     0.93300
O139        O  0.64147471  0.19609026  0.83326799    -0.80200
O140        O  0.60774371  0.13422698  0.84134230    -0.73800
Al141      Al  0.63964311  0.17897281  0.86302770     1.90100
O142        O  0.62799648  0.16719318  0.80938556    -0.72800
O143        O  0.64488278  0.10524926  0.83488351    -0.72700
O144        O  0.66610913  0.13973965  0.80527760    -0.78400
O145        O  0.66548477  0.10861209  0.86876455    -0.76600
O146        O  0.65238945  0.15200670  0.85023353    -1.12700
O147        O  0.67231269  0.14734867  0.89576586    -0.71900
C148        C  0.65316024  0.15451668  0.90625786     0.98800
C149        C  0.63369413  0.18914819  0.81286738     0.95200
Al150      Al  0.63793738  0.13774389  0.82494699     1.55600
O151        O  0.66991319  0.19412288  0.87112946    -0.76500
C152        C  0.65358297  0.09582941  0.85391649     0.99400
C153        C  0.59580539  0.15121887  0.85103200     0.94300
O154        O  0.60642217  0.17044608  0.85759949    -0.81800
O155        O  0.63099684  0.34470502  0.60057880    -0.81300
C156        C  0.68627254  0.37215850  0.68272004     0.98100
O157        O  0.68946513  0.37995588  0.66131612    -0.70400
O158        O  0.69440661  0.34270191  0.63271992    -0.74000
Al159      Al  0.67458104  0.37067843  0.63107272     1.49000
C160        C  0.68942397  0.32183015  0.62477822     0.93300
O161        O  0.64271251  0.30963432  0.65858583    -0.80200
O162        O  0.60535253  0.37072146  0.65698400    -0.73800
Al163      Al  0.63740820  0.32873734  0.63040331     1.90100
O164        O  0.62756055  0.33554276  0.68471111    -0.72800
O165        O  0.64199812  0.40050253  0.66490553    -0.72700
O166        O  0.66598331  0.36338956  0.68886944    -0.78400
O167        O  0.65741819  0.40049194  0.62823428    -0.76600
O168        O  0.64937672  0.35541411  0.64426777    -1.12700
O169        O  0.66546448  0.36442477  0.59800838    -0.71900
C170        C  0.64640049  0.35623698  0.58812859     0.98800
C171        C  0.63441575  0.31428532  0.67939800     0.95200
Al172      Al  0.63630107  0.36666034  0.67160808     1.55600
O173        O  0.66788918  0.31640185  0.61901560    -0.76500
C174        C  0.64756610  0.41171727  0.64563076     0.99400
C175        C  0.59352243  0.35410733  0.64646968     0.94300
O176        O  0.60421220  0.33522306  0.63882714    -0.81800
O177        O  0.16357536  0.90061853  0.62740547    -0.81300
C178        C  0.13448297  0.81713491  0.68050400     0.98100
O179        O  0.12856867  0.83885927  0.68510442    -0.70400
O180        O  0.16724750  0.86585877  0.68949795    -0.74000
Al181      Al  0.13852335  0.86921321  0.67091505     1.49000
C182        C  0.18803941  0.87369794  0.68399930     0.93300
O183        O  0.19725707  0.84087567  0.63509142    -0.80200
O184        O  0.13545106  0.84536659  0.60008483    -0.73800
Al185      Al  0.17888585  0.86996579  0.63192042     1.90100
O186        O  0.16983984  0.81565807  0.62119676    -0.72800
O187        O  0.10636892  0.83823334  0.63749729    -0.72700
O188        O  0.14235967  0.81153824  0.65973428    -0.78400
O189        O  0.10811253  0.87377662  0.65536231    -0.76600
O190        O  0.15224883  0.85644505  0.64447032    -1.12700
O191        O  0.14549905  0.90244767  0.66281263    -0.71900
C192        C  0.15290941  0.91278842  0.64365142     0.98800
C193        C  0.19157870  0.82016293  0.62705635     0.95200
Al194      Al  0.13951845  0.82998765  0.63078759     1.55600
O195        O  0.19286379  0.87973597  0.66237404    -0.76500
C196        C  0.09600841  0.85731471  0.64499992     0.99400
C197        C  0.15208007  0.85567540  0.58808156     0.94300
O198        O  0.17101679  0.86314944  0.59869817    -0.81800
O199        O  0.34760500  0.90013026  0.86539266    -0.81300
C200        C  0.37559520  0.81691601  0.81166465     0.98100
O201        O  0.38177275  0.83858535  0.80692829    -0.70400
O202        O  0.34288193  0.86575633  0.80312641    -0.74000
Al203      Al  0.37200831  0.86907706  0.82127245     1.49000
C204        C  0.32205097  0.87309757  0.80924941     0.93300
O205        O  0.31430671  0.84049287  0.85788650    -0.80200
O206        O  0.37693902  0.84507667  0.89161631    -0.73800
Al207      Al  0.33248210  0.86946938  0.86106922     1.90100
O208        O  0.34182847  0.81538822  0.87182884    -0.72800
O209        O  0.40483374  0.83784557  0.85370613    -0.72700
O210        O  0.36802522  0.81140479  0.83254712    -0.78400
O211        O  0.40273723  0.87369108  0.83649597    -0.76600
O212        O  0.35884976  0.85617688  0.84792488    -1.12700
O213        O  0.36483086  0.90232665  0.82955468    -0.71900
C214        C  0.35740252  0.91254192  0.84879292     0.98800
C215        C  0.32013862  0.81980973  0.86577484     0.95200
Al216      Al  0.37187893  0.82969222  0.86127484     1.55600
O217        O  0.31782802  0.87913292  0.83099486    -0.76500
C218        C  0.41501170  0.85724436  0.84678625     0.99400
C219        C  0.36063165  0.85520842  0.90411708     0.94300
O220        O  0.34122316  0.86248150  0.89413514    -0.81800
O221        O  0.16737237  0.60588885  0.86486690    -0.81300
C222        C  0.13785830  0.69014263  0.81321175     0.98100
O223        O  0.13206794  0.66845785  0.80819671    -0.70400
O224        O  0.16988980  0.64037688  0.80311184    -0.74000
Al225      Al  0.14134435  0.63773770  0.82204985     1.49000
C226        C  0.19079408  0.63272501  0.80836087     0.93300
O227        O  0.20075639  0.66544504  0.85726862    -0.80200
O228        O  0.13910140  0.66040178  0.89269369    -0.73800
Al229      Al  0.18242221  0.63645679  0.86049518     1.90100
O230        O  0.17357257  0.69028796  0.87220220    -0.72800
O231        O  0.10977949  0.66890471  0.85593231    -0.72700
O232        O  0.14595631  0.69540151  0.83397547    -0.78400
O233        O  0.11092300  0.63369075  0.83761048    -0.76600
O234        O  0.15556920  0.65012315  0.84838178    -1.12700
O235        O  0.14751729  0.60448322  0.83027235    -0.71900
C236        C  0.15567166  0.59412267  0.84909146     0.98800
C237        C  0.19513229  0.68602845  0.86559686     0.95200
Al238      Al  0.14312399  0.67645160  0.86254368     1.55600
O239        O  0.19594125  0.62700742  0.82996933    -0.76500
C240        C  0.09902373  0.65023341  0.84800842     0.99400
C241        C  0.15574948  0.64994667  0.90450336     0.94300
O242        O  0.17486871  0.64291948  0.89388103    -0.81800
O243        O  0.34755808  0.60697296  0.62544298    -0.81300
C244        C  0.37476481  0.69081090  0.67825961     0.98100
O245        O  0.38177814  0.66933355  0.68260117    -0.70400
O246        O  0.34417391  0.64088483  0.68751592    -0.74000
Al247      Al  0.37276322  0.63870274  0.66849984     1.49000
C248        C  0.32338859  0.63288671  0.68219184     0.93300
O249        O  0.31285186  0.66588182  0.63337682    -0.80200
O250        O  0.37503103  0.66238027  0.59813544    -0.73800
Al251      Al  0.33184528  0.63727318  0.63007384     1.90100
O252        O  0.33950623  0.69138473  0.61863737    -0.72800
O253        O  0.40379065  0.67139494  0.63576394    -0.72700
O254        O  0.36643539  0.69631011  0.65761053    -0.78400
O255        O  0.40331751  0.63520056  0.65241346    -0.76600
O256        O  0.35832032  0.65125617  0.64238231    -1.12700
O257        O  0.36648513  0.60544678  0.66044183    -0.71900
C258        C  0.35838814  0.59497575  0.64168572     0.98800
C259        C  0.31792255  0.68652685  0.62483155     0.95200
Al260      Al  0.37024310  0.67806960  0.62866271     1.55600
O261        O  0.31834141  0.62727225  0.66052689    -0.76500
C262        C  0.41486656  0.65251181  0.64273601     0.99400
C263        C  0.35846192  0.65171580  0.58633651     0.94300
O264        O  0.33949819  0.64429011  0.59695792    -0.81800
O265        O  0.10476916  0.16132695  0.62576987    -0.81300
C266        C  0.18854402  0.13756293  0.68057493     0.98100
O267        O  0.16707436  0.13083576  0.68514773    -0.70400
O268        O  0.13824433  0.16789492  0.68797454    -0.74000
Al269      Al  0.13655433  0.13865651  0.67022567     1.49000
C270        C  0.12991497  0.18836124  0.68202262     0.93300
O271        O  0.16257801  0.19792294  0.63342935    -0.80200
O272        O  0.16141653  0.13511328  0.59993033    -0.73800
Al273      Al  0.13449579  0.17815421  0.63036153     1.90100
O274        O  0.18915969  0.17119408  0.62063756    -0.72800
O275        O  0.16918324  0.10689535  0.63751896    -0.72700
O276        O  0.19425898  0.14451078  0.65951925    -0.78400
O277        O  0.13368463  0.10769758  0.65542584    -0.76600
O278        O  0.14904503  0.15234435  0.64366781    -1.12700
O279        O  0.10320263  0.14365569  0.66141846    -0.71900
C280        C  0.09290320  0.15023004  0.64196194     0.98800
C281        C  0.18356935  0.19290828  0.62571712     0.95200
Al282      Al  0.17617694  0.14039028  0.63054447     1.55600
O283        O  0.12359741  0.19248955  0.66034587    -0.76500
C284        C  0.15023473  0.09604686  0.64470504     0.99400
C285        C  0.15084351  0.15115341  0.58745278     0.94300
O286        O  0.14226672  0.16993213  0.59751456    -0.81800
O287        O  0.39874592  0.34466210  0.62493704    -0.81300
C288        C  0.31422996  0.37396239  0.67629407     0.98100
O289        O  0.33591604  0.37946273  0.68152033    -0.70400
O290        O  0.36282330  0.34037212  0.68625298    -0.74000
Al291      Al  0.36652253  0.36947564  0.66797969     1.49000
C292        C  0.37066055  0.31959124  0.68050708     0.93300
O293        O  0.33857705  0.31160604  0.63087683    -0.80200
O294        O  0.34445659  0.37379957  0.59703074    -0.73800
Al295      Al  0.36784588  0.32964598  0.62848129     1.90100
O296        O  0.31386787  0.33935502  0.61671052    -0.72800
O297        O  0.33653694  0.40232329  0.63408837    -0.72700
O298        O  0.30901502  0.36632869  0.65535579    -0.78400
O299        O  0.37157094  0.40006703  0.65277570    -0.76600
O300        O  0.35425536  0.35620046  0.64112173    -1.12700
O301        O  0.39979648  0.36240456  0.66053594    -0.71900
C302        C  0.41057344  0.35496515  0.64165463     0.98800
C303        C  0.31794691  0.31763375  0.62293189     0.95200
Al304      Al  0.32822297  0.36936564  0.62698261     1.55600
O305        O  0.37672984  0.31514924  0.65883182    -0.76500
C306        C  0.35568723  0.41238249  0.64174423     0.99400
C307        C  0.35523761  0.35756391  0.58501459     0.94300
O308        O  0.36198636  0.33812089  0.59523637    -0.81800
O309        O  0.40153546  0.16145110  0.86394334    -0.81300
C310        C  0.31630329  0.13588308  0.81293600     0.98100
O311        O  0.33745568  0.12830700  0.80820730    -0.70400
O312        O  0.36552734  0.16618369  0.80240866    -0.74000
Al313      Al  0.36845969  0.13757041  0.82139173     1.49000
C314        C  0.37434846  0.18673724  0.80739544     0.93300
O315        O  0.34394494  0.19790263  0.85653039    -0.80200
O316        O  0.34568149  0.13659923  0.89267832    -0.73800
Al317      Al  0.37188004  0.17824638  0.85969370     1.90100
O318        O  0.31757360  0.17208206  0.87156528    -0.72800
O319        O  0.33711608  0.10693266  0.85612321    -0.72700
O320        O  0.31144604  0.14430665  0.83364848    -0.78400
O321        O  0.37236058  0.10743436  0.83755382    -0.76600
O322        O  0.35689506  0.15213866  0.84790376    -1.12700
O323        O  0.40217788  0.14364550  0.82836911    -0.71900
C324        C  0.41309233  0.15073287  0.84731215     0.98800
C325        C  0.32323939  0.19342747  0.86517031     0.95200
Al326      Al  0.33019265  0.14083063  0.86227228     1.55600
O327        O  0.38165616  0.19125060  0.82871273    -0.76500
C328        C  0.35598734  0.09594184  0.84876510     0.99400
C329        C  0.35661989  0.15303758  0.90430858     0.94300
O330        O  0.36518917  0.17133131  0.89331368    -0.81800
O331        O  0.10819237  0.34328570  0.86663355    -0.81300
C332        C  0.18986468  0.37466593  0.81162729     0.98100
O333        O  0.16781716  0.37881006  0.80691737    -0.70400
O334        O  0.14112326  0.34005668  0.80394151    -0.74000
Al335      Al  0.13818588  0.36907881  0.82207742     1.49000
C336        C  0.13396800  0.31917715  0.80993469     0.93300
O337        O  0.16926680  0.31186358  0.85808304    -0.80200
O338        O  0.16306301  0.37323200  0.89317701    -0.73800
Al339      Al  0.13948879  0.32907262  0.86169507     1.90100
O340        O  0.19373991  0.34060436  0.87075330    -0.72800
O341        O  0.16792691  0.40280290  0.85629093    -0.72700
O342        O  0.19618848  0.36867687  0.83281620    -0.78400
O343        O  0.13354769  0.40000386  0.83638651    -0.76600
O344        O  0.15180954  0.35622913  0.84865968    -1.12700
O345        O  0.10560901  0.36188268  0.83145508    -0.71900
C346        C  0.09565783  0.35390553  0.85057011     0.98800
C347        C  0.19003872  0.31870802  0.86504381     0.95200
Al348      Al  0.17790962  0.37019230  0.86207785     1.55600
O349        O  0.12952603  0.31437668  0.83188425    -0.76500
C350        C  0.14891956  0.41243268  0.84788725     0.99400
C351        C  0.15361794  0.35612885  0.90517837     0.94300
O352        O  0.14662495  0.33709835  0.89454589    -0.81800
O353        O  0.90384468  0.87328614  0.33976498    -0.81300
C354        C  0.81894667  0.82118361  0.36478633     0.98100
O355        O  0.84018912  0.81678415  0.37229803    -0.70400
O356        O  0.86832065  0.81164148  0.33468795    -0.74000
Al357      Al  0.87101546  0.83028389  0.36332636     1.49000
C358        C  0.87665760  0.81703591  0.31406411     0.93300
O359        O  0.84586831  0.86585874  0.30351202    -0.80200
O360        O  0.84821702  0.90109159  0.36549826    -0.73800
Al361      Al  0.87400293  0.86911561  0.32301089     1.90100
O362        O  0.81971290  0.88049122  0.32960087    -0.72800
O363        O  0.83887607  0.86364123  0.39395282    -0.72700
O364        O  0.81373722  0.84193215  0.35650729    -0.78400
O365        O  0.87475866  0.84621694  0.39363030    -0.76600
O366        O  0.85920143  0.85677986  0.34899376    -1.12700
O367        O  0.90441427  0.83755470  0.35739536    -0.71900
C368        C  0.91520735  0.85671471  0.35081209     0.98800
C369        C  0.82476039  0.87319789  0.30842413     0.95200
Al370      Al  0.83238851  0.87071956  0.36049032     1.55600
O371        O  0.88373120  0.83844455  0.30957239    -0.76500
C372        C  0.85765252  0.85635517  0.40500694     0.99400
C373        C  0.85988226  0.91300589  0.34970599     0.94300
O374        O  0.86736751  0.90257897  0.33061923    -0.81800
O375        O  0.90427517  0.63731087  0.15492752    -0.81300
C376        C  0.81875875  0.68621343  0.12616341     0.98100
O377        O  0.84017194  0.69225961  0.12047562    -0.70400
O378        O  0.86665065  0.69804578  0.15915020    -0.74000
Al379      Al  0.87119511  0.67984626  0.13033963     1.49000
C380        C  0.87524243  0.69296378  0.17972907     0.93300
O381        O  0.84479005  0.64401500  0.18893385    -0.80200
O382        O  0.85207242  0.60797580  0.12758211    -0.73800
Al383      Al  0.87393842  0.64113475  0.17073177     1.90100
O384        O  0.82083773  0.62761150  0.16163916    -0.72800
O385        O  0.84279223  0.64409287  0.09769823    -0.72700
O386        O  0.81429600  0.66499197  0.13348256    -0.78400
O387        O  0.87663342  0.66492338  0.09986958    -0.76600
O388        O  0.85994256  0.65276201  0.14391789    -1.12700
O389        O  0.90481864  0.67317394  0.13733786    -0.71900
C390        C  0.91569421  0.65400662  0.14407240     0.98800
C391        C  0.82455853  0.63487598  0.18314416     0.95200
Al392      Al  0.83462715  0.63739391  0.13108811     1.55600
O393        O  0.88315685  0.67189594  0.18410184    -0.76500
C394        C  0.86126254  0.65328446  0.08752383     0.99400
C395        C  0.86198385  0.59654481  0.14480120     0.94300
O396        O  0.86802706  0.60755029  0.16397980    -0.81800
O397        O  0.60885386  0.87200625  0.15741112    -0.81300
C398        C  0.69193877  0.81892554  0.12815001     0.98100
O399        O  0.67037716  0.81477314  0.12135289    -0.70400
O400        O  0.64306911  0.80979693  0.15938584    -0.74000
Al401      Al  0.64000417  0.82895520  0.13122446     1.49000
C402        C  0.63583580  0.81488299  0.18045319     0.93300
O403        O  0.66839577  0.86290638  0.19054553    -0.80200
O404        O  0.66382114  0.89909548  0.12921890    -0.73800
Al405      Al  0.63944274  0.86702034  0.17243614     1.90100
O406        O  0.69350055  0.87794073  0.16367406    -0.72800
O407        O  0.67163387  0.86227069  0.09978732    -0.72700
O408        O  0.69768130  0.83960167  0.13617223    -0.78400
O409        O  0.63572308  0.84523825  0.10124185    -0.76600
O410        O  0.65284281  0.85494055  0.14555004    -1.12700
O411        O  0.60689471  0.83719368  0.13820193    -0.71900
C412        C  0.59667171  0.85615849  0.14619703     0.98800
C413        C  0.68925447  0.87044546  0.18495732     0.95200
Al414      Al  0.67941371  0.86864060  0.13318943     1.55600
O415        O  0.62974652  0.83637668  0.18577897    -0.76500
C416        C  0.65236097  0.85546887  0.08929570     0.99400
C417        C  0.65306665  0.91098346  0.14563839     0.94300
O418        O  0.64629859  0.90050638  0.16497602    -0.81800
O419        O  0.61126833  0.63276032  0.33752644    -0.81300
C420        C  0.69463955  0.68592512  0.36522151     0.98100
O421        O  0.67317752  0.69000574  0.37218185    -0.70400
O422        O  0.64685534  0.69440948  0.33321873    -0.74000
Al423      Al  0.64296131  0.67610036  0.36194590     1.49000
C424        C  0.63906053  0.68881213  0.31245219     0.93300
O425        O  0.67035487  0.63994266  0.30314900    -0.80200
O426        O  0.66686377  0.60528279  0.36503914    -0.73800
Al427      Al  0.64165947  0.63701821  0.32185852     1.90100
O428        O  0.69601630  0.62638853  0.33034714    -0.72800
O429        O  0.67395854  0.64288050  0.39405895    -0.72700
O430        O  0.70039206  0.66519087  0.35730919    -0.78400
O431        O  0.63822527  0.66045429  0.39224764    -0.76600
O432        O  0.65550548  0.64957371  0.34826622    -1.12700
O433        O  0.60968909  0.66860995  0.35468759    -0.71900
C434        C  0.59920130  0.64945139  0.34757003     0.98800
C435        C  0.69114290  0.63206040  0.30864290     0.95200
Al436      Al  0.68208854  0.63604576  0.36075014     1.55600
O437        O  0.63207610  0.66741706  0.30795241    -0.76500
C438        C  0.65475743  0.65022936  0.40442679     0.99400
C439        C  0.65615545  0.59337040  0.34859782     0.94300
O440        O  0.64839334  0.60397992  0.32978188    -0.81800
O441        O  0.63863208  0.10461736  0.15562204    -0.81300
C442        C  0.68882005  0.18991431  0.12824799     0.98100
O443        O  0.69362884  0.16867788  0.12084354    -0.70400
O444        O  0.70022801  0.14044253  0.15835158    -0.74000
Al445      Al  0.68069756  0.13753543  0.13013765     1.49000
C446        C  0.69564894  0.13201441  0.17914455     0.93300
O447        O  0.64674186  0.16331985  0.19040586    -0.80200
O448        O  0.60984440  0.15882699  0.12917915    -0.73800
Al449      Al  0.64312060  0.13473314  0.17164607     1.90100
O450        O  0.63003789  0.18824425  0.16433506    -0.72800
O451        O  0.64619147  0.16908928  0.09991293    -0.72700
O452        O  0.66814719  0.19476501  0.13690136    -0.78400
O453        O  0.66413455  0.13357185  0.10011447    -0.76600
O454        O  0.65448964  0.14916315  0.14502690    -1.12700
O455        O  0.67355940  0.10389580  0.13641810    -0.71900
C456        C  0.65479198  0.09308244  0.14416712     0.98800
C457        C  0.63815889  0.18395359  0.18535211     0.95200
Al458      Al  0.63973644  0.17552247  0.13348667     1.55600
O459        O  0.67432395  0.12519430  0.18439207    -0.76500
C460        C  0.65327076  0.15029519  0.08878804     0.99400
C461        C  0.59839356  0.14783378  0.14575856     0.94300
O462        O  0.60927297  0.14113418  0.16492187    -0.81800
O463        O  0.63572258  0.39788804  0.33852076    -0.81300
C464        C  0.68762270  0.31430548  0.36967600     0.98100
O465        O  0.69160115  0.33588003  0.37651188    -0.70400
O466        O  0.69836869  0.36344289  0.33797796    -0.74000
Al467      Al  0.67794244  0.36631306  0.36583459     1.49000
C468        C  0.69381879  0.37162486  0.31701211     0.93300
O469        O  0.64614906  0.33861833  0.30504516    -0.80200
O470        O  0.60769562  0.34239357  0.36504689    -0.73800
Al471      Al  0.64133479  0.36736681  0.32334041     1.90100
O472        O  0.63034452  0.31328654  0.33127145    -0.72800
O473        O  0.64328641  0.33436882  0.39554415    -0.72700
O474        O  0.66752006  0.30872672  0.36019924    -0.78400
O475        O  0.66018761  0.37041871  0.39534813    -0.76600
O476        O  0.65250020  0.35364098  0.35047571    -1.12700
O477        O  0.67022498  0.39940995  0.35835658    -0.71900
C478        C  0.65188192  0.40997672  0.34939269     0.98800
C479        C  0.63831123  0.31773543  0.31024277     0.95200
Al480      Al  0.63837021  0.32695251  0.36207657     1.55600
O481        O  0.67236670  0.37752148  0.31130557    -0.76500
C482        C  0.64921391  0.35359664  0.40652154     0.99400
C483        C  0.59646795  0.35297290  0.34808509     0.94300
O484        O  0.60771963  0.36012027  0.32934160    -0.81800
O485        O  0.87906002  0.10820498  0.33839105    -0.81300
C486        C  0.82288180  0.19051208  0.36622638     0.98100
O487        O  0.81933628  0.16863228  0.37216277    -0.70400
O488        O  0.81558372  0.14068313  0.33395812    -0.74000
Al489      Al  0.83455156  0.13880829  0.36279693     1.49000
C490        C  0.82139714  0.13298476  0.31315483     0.93300
O491        O  0.86866475  0.16674816  0.30278091    -0.80200
O492        O  0.90429558  0.16565370  0.36435092    -0.73800
Al493      Al  0.87314579  0.13839262  0.32209612     1.90100
O494        O  0.88128278  0.19336911  0.32949182    -0.72800
O495        O  0.86723959  0.17202809  0.39369218    -0.72700
O496        O  0.84315669  0.19700953  0.35772207    -0.78400
O497        O  0.85069317  0.13580183  0.39330204    -0.76600
O498        O  0.86026500  0.15226402  0.34846145    -1.12700
O499        O  0.84379698  0.10584377  0.35664087    -0.71900
C500        C  0.86320090  0.09584416  0.34948721     0.98800
C501        C  0.87557422  0.18800726  0.30792300     0.95200
Al502      Al  0.87293992  0.17964250  0.36032060     1.55600
O503        O  0.84313527  0.12714528  0.30868777    -0.76500
C504        C  0.86080120  0.15296013  0.40473388     0.99400
C505        C  0.91637850  0.15542405  0.34778231     0.94300
O506        O  0.90591281  0.14686965  0.32927731    -0.81800
O507        O  0.87358472  0.40200363  0.15500523    -0.81300
C508        C  0.81923008  0.31936806  0.12690024     0.98100
O509        O  0.81404652  0.34122964  0.12219010    -0.70400
O510        O  0.81160893  0.36820244  0.16088004    -0.74000
Al511      Al  0.82881026  0.37137241  0.13117133     1.49000
C512        C  0.81804223  0.37525171  0.18167138     0.93300
O513        O  0.86681010  0.34192413  0.18753473    -0.80200
O514        O  0.89985349  0.34771429  0.12463501    -0.73800
Al515      Al  0.86958174  0.37124292  0.16983552     1.90100
O516        O  0.87983023  0.31719422  0.15924498    -0.72800
O517        O  0.86144251  0.34104713  0.09702792    -0.72700
O518        O  0.84054614  0.31353168  0.13294466    -0.78400
O519        O  0.84235558  0.37585431  0.09964455    -0.76600
O520        O  0.85592027  0.35834758  0.14340369    -1.12700
O521        O  0.83775187  0.40435872  0.13775447    -0.71900
C522        C  0.85717366  0.41437337  0.14483980     0.98800
C523        C  0.87422095  0.32120913  0.18113887     0.95200
Al524      Al  0.86926854  0.33218379  0.12957921     1.55600
O525        O  0.83993312  0.38089745  0.18554861    -0.76500
C526        C  0.85285418  0.35982533  0.08703811     0.99400
C527        C  0.91245091  0.35758959  0.14105465     0.94300
O528        O  0.90247159  0.36448645  0.16055329    -0.81800
O529        O  0.11079356  0.13581070  0.33700973    -0.81300
C530        C  0.19493360  0.18627951  0.36725439     0.98100
O531        O  0.17339703  0.19082225  0.37370456    -0.70400
O532        O  0.14678996  0.19736170  0.33521477    -0.74000
Al533      Al  0.14294747  0.17789498  0.36329670     1.49000
C534        C  0.13857613  0.19271358  0.31437782     0.93300
O535        O  0.17052532  0.14401076  0.30382208    -0.80200
O536        O  0.16500805  0.10709054  0.36473367    -0.73800
Al537      Al  0.14143462  0.14027661  0.32185388     1.90100
O538        O  0.19511040  0.12797579  0.33063794    -0.72800
O539        O  0.17354196  0.14340533  0.39441162    -0.72700
O540        O  0.20035017  0.16574810  0.35864627    -0.78400
O541        O  0.13805280  0.16137158  0.39302916    -0.76600
O542        O  0.15512414  0.15172587  0.34882031    -1.12700
O543        O  0.10975355  0.17082462  0.35601326    -0.71900
C544        C  0.09905320  0.15213031  0.34808169     0.98800
C545        C  0.19118427  0.13586014  0.30945660     0.95200
Al546      Al  0.18128988  0.13719759  0.36112292     1.55600
O547        O  0.13201891  0.17137731  0.30892300    -0.76500
C548        C  0.15447823  0.15070720  0.40491856     0.99400
C549        C  0.15452804  0.09555461  0.34793637     0.94300
O550        O  0.14784476  0.10649126  0.32879662    -0.81800
O551        O  0.16316877  0.39987370  0.12576902    -0.81300
C552        C  0.13500352  0.31702890  0.17987976     0.98100
O553        O  0.12819029  0.33859542  0.18378942    -0.70400
O554        O  0.16584557  0.36655198  0.18881489    -0.74000
Al555      Al  0.13752008  0.36876374  0.16928624     1.49000
C556        C  0.18654868  0.37488637  0.18370089     0.93300
O557        O  0.19785151  0.34149910  0.13699755    -0.80200
O558        O  0.13748046  0.34371628  0.09910314    -0.73800
Al559      Al  0.17908977  0.36982595  0.13181681     1.90100
O560        O  0.17201686  0.31520299  0.12190473    -0.72800
O561        O  0.10708139  0.33632779  0.13515284    -0.72700
O562        O  0.14303469  0.31091056  0.15932652    -0.78400
O563        O  0.10737733  0.37207265  0.15265657    -0.76600
O564        O  0.15234850  0.35586730  0.14363747    -1.12700
O565        O  0.14398285  0.40189656  0.16062078    -0.71900
C566        C  0.15211924  0.41214444  0.14171184     0.98800
C567        C  0.19313875  0.32046289  0.12928844     0.95200
Al568      Al  0.14079645  0.32882364  0.13000053     1.55600
O569        O  0.19156468  0.38107249  0.16220931    -0.76500
C570        C  0.09602667  0.35537754  0.14172977     0.99400
C571        C  0.15441804  0.35402119  0.08759210     0.94300
O572        O  0.17298228  0.36169835  0.09864814    -0.81800
O573        O  0.34610405  0.10780877  0.12663375    -0.81300
C574        C  0.38079862  0.18865111  0.18055492     0.98100
O575        O  0.38553635  0.16659506  0.18448101    -0.70400
O576        O  0.34556287  0.14214149  0.18925878    -0.74000
Al577      Al  0.37364149  0.13746582  0.17001263     1.49000
C578        C  0.32438550  0.13514791  0.18415515     0.93300
O579        O  0.31529938  0.16829984  0.13675232    -0.80200
O580        O  0.37495684  0.16305808  0.09907829    -0.73800
Al581      Al  0.33226705  0.13896616  0.13219513     1.90100
O582        O  0.34309712  0.19367047  0.12358209    -0.72800
O583        O  0.40642147  0.16669043  0.13495907    -0.72700
O584        O  0.37326464  0.19534718  0.16000875    -0.78400
O585        O  0.40328449  0.13162134  0.15369099    -0.76600
O586        O  0.35989240  0.15125832  0.14409111    -1.12700
O587        O  0.36484363  0.10501175  0.16175155    -0.71900
C588        C  0.35634394  0.09519510  0.14285077     0.98800
C589        C  0.32138915  0.18925260  0.12983678     0.95200
Al590      Al  0.37338278  0.17744124  0.13051393     1.55600
O591        O  0.31906503  0.12898808  0.16272844    -0.76500
C592        C  0.41592006  0.14705547  0.14240623     0.99400
C593        C  0.35725047  0.15404470  0.08768267     0.94300
O594        O  0.33874522  0.14655681  0.09893812    -0.81800
O595        O  0.34684180  0.40049902  0.36205667    -0.81300
C596        C  0.37519381  0.31445984  0.31314518     0.98100
O597        O  0.38051352  0.33596809  0.30694864    -0.70400
O598        O  0.34168204  0.36352805  0.30139903    -0.74000
Al599      Al  0.37089005  0.36719303  0.31946707     1.49000
C600        C  0.32130797  0.37236954  0.30710263     0.93300
O601        O  0.31294915  0.34096700  0.35708172    -0.80200
O602        O  0.37533125  0.34753530  0.39113602    -0.73800
Al603      Al  0.33127828  0.36998792  0.35907832     1.90100
O604        O  0.34045955  0.31677604  0.37264449    -0.72800
O605        O  0.40353001  0.33785152  0.35414517    -0.72700
O606        O  0.36720525  0.31002057  0.33413854    -0.78400
O607        O  0.40159109  0.37228241  0.33426988    -0.76600
O608        O  0.35762755  0.35584453  0.34673975    -1.12700
O609        O  0.36410394  0.40076870  0.32611526    -0.71900
C610        C  0.35683482  0.41193213  0.34485282     0.98800
C611        C  0.31884398  0.32069873  0.36604279     0.95200
Al612      Al  0.37057437  0.33023885  0.36175423     1.55600
O613        O  0.31708309  0.37875822  0.32871171    -0.76500
C614        C  0.41377209  0.35656864  0.34568202     0.99400
C615        C  0.35873746  0.35802694  0.40292294     0.94300
O616        O  0.33935378  0.36442874  0.39241944    -0.81800
O617        O  0.16596424  0.63518193  0.09877614    -0.81300
C618        C  0.13580976  0.68628894  0.18277860     0.98100
O619        O  0.13010947  0.69105277  0.16107850    -0.70400
O620        O  0.16914413  0.69662292  0.13483785    -0.74000
Al621      Al  0.14062800  0.67789541  0.13073597     1.49000
C622        C  0.18980348  0.69153586  0.12639824     0.93300
O623        O  0.19900080  0.64196417  0.15855051    -0.80200
O624        O  0.13757292  0.60654547  0.15263251    -0.73800
Al625      Al  0.18104554  0.63915645  0.12945507     1.90100
O626        O  0.17166589  0.62727864  0.18348696    -0.72800
O627        O  0.10805994  0.64340313  0.16029715    -0.72700
O628        O  0.14357101  0.66542306  0.18832872    -0.78400
O629        O  0.11050172  0.66227448  0.12531496    -0.76600
O630        O  0.15426821  0.65124276  0.14304684    -1.12700
O631        O  0.14827198  0.67085749  0.09758470    -0.71900
C632        C  0.15588235  0.65201113  0.08691984     0.98800
C633        C  0.19328494  0.63382852  0.17919832     0.95200
Al634      Al  0.14125839  0.63681566  0.16899274     1.55600
O635        O  0.19483958  0.66994706  0.12032596    -0.76500
C636        C  0.09806852  0.65133193  0.14114326     0.99400
C637        C  0.15418549  0.59495497  0.14185551     0.94300
O638        O  0.17341641  0.60571770  0.13543116    -0.81800
O639        O  0.34782280  0.63421076  0.39174849    -0.81300
C640        C  0.37860513  0.68656085  0.30883407     0.98100
O641        O  0.38441175  0.69123467  0.33054793    -0.70400
O642        O  0.34595845  0.69673486  0.35775788    -0.74000
Al643      Al  0.37439597  0.67726886  0.36085293     1.49000
C644        C  0.32487756  0.69168016  0.36516115     0.93300
O645        O  0.31517777  0.64370687  0.33191716    -0.80200
O646        O  0.37583012  0.60651286  0.33739062    -0.73800
Al647      Al  0.33293635  0.63947085  0.36111801     1.90100
O648        O  0.34224128  0.62827505  0.30717677    -0.72800
O649        O  0.40596927  0.64266564  0.33009992    -0.72700
O650        O  0.37081424  0.66579580  0.30314799    -0.78400
O651        O  0.40461858  0.66108644  0.36529403    -0.76600
O652        O  0.36010942  0.65122263  0.34797304    -1.12700
O653        O  0.36739185  0.66887232  0.39391393    -0.71900
C654        C  0.35938234  0.64980449  0.40396544     0.98800
C655        C  0.32082196  0.63546273  0.31128928     0.95200
Al656      Al  0.37272152  0.63701370  0.32172031     1.55600
O657        O  0.31968782  0.67012096  0.37108907    -0.76500
C658        C  0.41647467  0.64993162  0.34916323     0.99400
C659        C  0.35860364  0.59496043  0.34714084     0.94300
O660        O  0.33972095  0.60604545  0.35406050    -0.81800
O661        O  0.16324043  0.87132082  0.39270582    -0.81300
C662        C  0.13379194  0.82026488  0.30826763     0.98100
O663        O  0.12829772  0.81521931  0.32993874    -0.70400
O664        O  0.16841630  0.81060565  0.35516690    -0.74000
Al665      Al  0.13933036  0.82841502  0.36018517     1.49000
C666        C  0.18919474  0.81636946  0.36294385     0.93300
O667        O  0.19657051  0.86686289  0.33240838    -0.80200
O668        O  0.13441104  0.90017244  0.33795453    -0.73800
Al669      Al  0.17844874  0.86846651  0.36170745     1.90100
O670        O  0.16845476  0.87964301  0.30732672    -0.72800
O671        O  0.10574938  0.86278019  0.33159241    -0.72700
O672        O  0.14130639  0.84121747  0.30290545    -0.78400
O673        O  0.10909440  0.84345960  0.36633586    -0.76600
O674        O  0.15208288  0.85566267  0.34802559    -1.12700
O675        O  0.14724432  0.83494059  0.39342208    -0.71900
C676        C  0.15372939  0.85400555  0.40440249     0.98800
C677        C  0.19033241  0.87414696  0.31157528     0.95200
Al678      Al  0.13856202  0.86975610  0.32215702     1.55600
O679        O  0.19335845  0.83790338  0.36990534    -0.76500
C680        C  0.09640333  0.85500613  0.35113931     0.99400
C681        C  0.15053906  0.91221757  0.34886695     0.94300
O682        O  0.16960736  0.90178659  0.35631795    -0.81800
O683        O  0.34895689  0.87294019  0.09836271    -0.81300
C684        C  0.37407017  0.81959907  0.18309301     0.98100
O685        O  0.38099834  0.81549343  0.16164475    -0.70400
O686        O  0.34315414  0.81107122  0.13317662    -0.74000
Al687      Al  0.37209786  0.82967160  0.13119628     1.49000
C688        C  0.32266681  0.81675719  0.12457388     0.93300
O689        O  0.31166117  0.86614510  0.15641673    -0.80200
O690        O  0.37348588  0.90031541  0.15669588    -0.73800
Al691      Al  0.33193758  0.86882068  0.12833667     1.90100
O692        O  0.33804586  0.87829356  0.18352407    -0.72800
O693        O  0.40247145  0.86301254  0.16401338    -0.72700
O694        O  0.36524871  0.83998629  0.18859345    -0.78400
O695        O  0.40261764  0.84560291  0.12815398    -0.76600
O696        O  0.35767550  0.85605971  0.14338778    -1.12700
O697        O  0.36655367  0.83729281  0.09781225    -0.71900
C698        C  0.35974124  0.85626285  0.08687467     0.98800
C699        C  0.31648473  0.87324557  0.17769234     0.95200
Al700      Al  0.36889559  0.86926207  0.17079819     1.55600
O701        O  0.31830909  0.83842816  0.11828125    -0.76500
C702        C  0.41379444  0.85605695  0.14526529     0.99400
C703        C  0.35786922  0.91228067  0.14494035     0.94300
O704        O  0.33986661  0.90185830  0.13529007    -0.81800
C705        C  0.21935164  0.88334042  0.24939143    -0.27700
C706        C  0.24332511  0.87573648  0.25365531     0.05900
C707        C  0.24990528  0.86832366  0.27726685     0.25500
C708        C  0.23275351  0.86835649  0.29604419    -0.12200
C709        C  0.20865143  0.87571704  0.29176461    -0.26100
C710        C  0.20215680  0.88334177  0.26813703     0.36300
C711        C  0.26145970  0.87591293  0.23359226     0.05900
F712        F  0.27276179  0.86035242  0.28206968    -0.19900
H713        H  0.23831381  0.86220090  0.31390903     0.15800
F714        F  0.17917146  0.89065890  0.26295495    -0.23600
H715        H  0.21394091  0.88948854  0.23148223     0.17500
C716        C  0.25635554  0.86530494  0.21084755     0.25500
C717        C  0.27401539  0.86506802  0.19245963    -0.12100
C718        C  0.29709691  0.87530745  0.19640197    -0.26200
C719        C  0.30187497  0.88646287  0.21900237     0.36500
C720        C  0.28423468  0.88674462  0.23724791    -0.27800
F721        F  0.23464486  0.85435498  0.20669309    -0.19900
H722        H  0.26982237  0.85628194  0.17534930     0.15800
F723        F  0.32364316  0.89709983  0.22366246    -0.23600
H724        H  0.28841320  0.89551242  0.25437204     0.17600
C725        C  0.38974454  0.74730788  0.27795926    -0.27700
C726        C  0.37953096  0.74321160  0.25499142     0.05900
C727        C  0.37016934  0.72014539  0.24937786     0.25500
C728        C  0.37050963  0.70164282  0.26677096    -0.12200
C729        C  0.38028635  0.70577358  0.29003400    -0.26100
C730        C  0.39029862  0.72877248  0.29533399     0.36300
C731        C  0.37863229  0.76305715  0.23694858     0.05900
F732        F  0.35994330  0.71577969  0.22735081    -0.19900
H733        H  0.36259817  0.68421208  0.26215397     0.15800
F734        F  0.40050382  0.73349726  0.31728912    -0.23600
H735        H  0.39734011  0.76492619  0.28240439     0.17500
C736        C  0.36630590  0.78482764  0.24206723     0.25500
C737        C  0.36510383  0.80324975  0.22458687    -0.12100
C738        C  0.37625828  0.80030637  0.20176581    -0.26200
C739        C  0.38896176  0.77855693  0.19690866     0.36500
C740        C  0.38998776  0.76013268  0.21434841    -0.27800
F741        F  0.35484481  0.78796218  0.26369896    -0.19900
H742        H  0.35512792  0.81969730  0.22881794     0.15800
F743        F  0.40052507  0.77502249  0.17539877    -0.23600
H744        H  0.39977922  0.74353333  0.21026313     0.17600
C745        C  0.29054568  0.75130378  0.35683756    -0.27700
C746        C  0.26764035  0.74557914  0.36664907     0.05900
C747        C  0.26412118  0.72234174  0.37680793     0.25500
C748        C  0.28291960  0.70520049  0.37663746    -0.12200
C749        C  0.30576260  0.71079078  0.36655627    -0.26100
C750        C  0.30946486  0.73425319  0.35691079     0.36300
C751        C  0.24748452  0.76370561  0.36588903     0.05900
F752        F  0.24259153  0.71623951  0.38721492    -0.19900
H753        H  0.27948070  0.68740442  0.38435205     0.15800
F754        F  0.33113306  0.74064529  0.34699096    -0.23600
H755        H  0.29369962  0.76890699  0.34858751     0.17500
C756        C  0.25140539  0.78811237  0.37251085     0.25500
C757        C  0.23238872  0.80496342  0.37154296    -0.12100
C758        C  0.20897389  0.79797526  0.36402970    -0.26200
C759        C  0.20503212  0.77354348  0.35736399     0.36500
C760        C  0.22411753  0.75671198  0.35823505    -0.27800
F761        F  0.27350844  0.79565044  0.38044149    -0.19900
H762        H  0.23607517  0.82359068  0.37675296     0.15800
F763        F  0.18281774  0.76581219  0.34991783    -0.23600
H764        H  0.22066133  0.73817181  0.35258727     0.17600
C765        C  0.22386858  0.75131365  0.13235581    -0.27700
C766        C  0.24493276  0.74644011  0.11886440     0.05900
C767        C  0.24725649  0.72404012  0.10690127     0.25500
C768        C  0.22909631  0.70642927  0.10915387    -0.12200
C769        C  0.20827618  0.71088444  0.12332362    -0.26100
C770        C  0.20564563  0.73374271  0.13462721     0.36300
C771        C  0.26514742  0.76406266  0.11887117     0.05900
F772        F  0.26713552  0.71922716  0.09309386    -0.19900
H773        H  0.23143563  0.68919969  0.09991471     0.15800
F774        F  0.18593705  0.73888651  0.14856171    -0.23600
H775        H  0.22191349  0.76849168  0.14179157     0.17500
C776        C  0.26206500  0.78762347  0.10959644     0.25500
C777        C  0.28104411  0.80445408  0.11101612    -0.12100
C778        C  0.30332323  0.79817175  0.12197296    -0.26200
C779        C  0.30632035  0.77442161  0.13114527     0.36500
C780        C  0.28741698  0.75755369  0.12941084    -0.27800
F781        F  0.24072784  0.79430867  0.09915520    -0.19900
H782        H  0.27813966  0.82254952  0.10379109     0.15800
F783        F  0.32718263  0.76760114  0.14241448    -0.23600
H784        H  0.28991027  0.73950803  0.13692864     0.17600
C785        C  0.12649396  0.74798419  0.21240994    -0.27700
C786        C  0.13239822  0.74311994  0.23670324     0.05900
C787        C  0.13851981  0.71920512  0.24347117     0.25500
C788        C  0.13925471  0.70068645  0.22599476    -0.12200
C789        C  0.13367968  0.70562111  0.20152005    -0.26100
C790        C  0.12702576  0.72954648  0.19499012     0.36300
C791        C  0.13225775  0.76317733  0.25471587     0.05900
F792        F  0.14453074  0.71391429  0.26681578    -0.19900
H793        H  0.14448618  0.68253651  0.23159387     0.15800
F794        F  0.12134107  0.73538890  0.17169768    -0.23600
H795        H  0.12141024  0.76620476  0.20689564     0.17500
C796        C  0.14552947  0.78464295  0.25049659     0.25500
C797        C  0.14535672  0.80343685  0.26763088    -0.12100
C798        C  0.13203454  0.80117508  0.28932193    -0.26200
C799        C  0.11831694  0.77987597  0.29323855     0.36500
C800        C  0.11852493  0.76109914  0.27609995    -0.27800
F801        F  0.15931908  0.78709944  0.23017151    -0.19900
H802        H  0.15622412  0.81950711  0.26421196     0.15800
F803        F  0.10455407  0.77719428  0.31354519    -0.23600
H804        H  0.10780405  0.74492165  0.27945784     0.17600
C805        C  0.22411386  0.62551542  0.24059759    -0.27700
C806        C  0.24805527  0.63256330  0.23525006     0.05900
C807        C  0.25399459  0.63916233  0.21129879     0.25500
C808        C  0.23619755  0.63904753  0.19318945    -0.12200
C809        C  0.21209215  0.63233755  0.19850468    -0.26100
C810        C  0.20626045  0.62535140  0.22248326     0.36300
C811        C  0.26666104  0.63322935  0.25473649     0.05900
F812        F  0.27682876  0.64654456  0.20555918    -0.19900
H813        H  0.24129023  0.64461214  0.17499779     0.15800
F814        F  0.18330508  0.61871460  0.22862992    -0.23600
H815        H  0.21923264  0.62011675  0.25890272     0.17500
C816        C  0.26235129  0.64597215  0.27645640     0.25500
C817        C  0.27994362  0.64641154  0.29477140    -0.12100
C818        C  0.30225783  0.63430588  0.29178229    -0.26200
C819        C  0.30663637  0.62171423  0.26988256     0.36500
C820        C  0.28893797  0.62117121  0.25164383    -0.27800
F821        F  0.24138511  0.65857513  0.27970097    -0.19900
H822        H  0.27618041  0.65655777  0.31121966     0.15800
F823        F  0.32787253  0.60973036  0.26606876    -0.23600
H824        H  0.29255864  0.61112441  0.23509999     0.17600
C825        C  0.36644141  0.47794420  0.32706207    -0.27700
C826        C  0.36148546  0.48992021  0.34902486     0.05900
C827        C  0.35559211  0.47610462  0.36969781     0.25500
C828        C  0.35451168  0.45076661  0.36829723    -0.12200
C829        C  0.35927367  0.43870616  0.34627896    -0.26100
C830        C  0.36536322  0.45260856  0.32560672     0.36300
C831        C  0.36154073  0.51681573  0.34995364     0.05900
F832        F  0.35108118  0.48711166  0.39131176    -0.19900
H833        H  0.34982747  0.44058287  0.38449450     0.15800
F834        F  0.36956343  0.44189409  0.30377718    -0.23600
H835        H  0.37059783  0.48829654  0.31082141     0.17500
C836        C  0.38140630  0.53023635  0.34112821     0.25500
C837        C  0.38062106  0.55563840  0.34092234    -0.12100
C838        C  0.36000863  0.56814232  0.34944934    -0.26200
C839        C  0.34038351  0.55460404  0.35889464     0.36500
C840        C  0.34120086  0.52923025  0.35902317    -0.27800
F841        F  0.40160540  0.51877718  0.33278109    -0.19900
H842        H  0.39605551  0.56550322  0.33369970     0.15800
F843        F  0.32011741  0.56572763  0.36753166    -0.23600
H844        H  0.32561592  0.51921278  0.36570678     0.17600
C845        C  0.35213395  0.97691930  0.12222746    -0.27700
C846        C  0.35979259  0.99026905  0.14261074     0.05900
C847        C  0.36732076  0.97758404  0.16358639     0.25500
C848        C  0.36772062  0.95216625  0.16376553    -0.12200
C849        C  0.35979523  0.93894806  0.14346183    -0.26100
C850        C  0.35185634  0.95152694  0.12269703     0.36300
C851        C  0.35938728  0.01728352  0.14184442     0.05900
F852        F  0.37318582  0.98964025  0.18429700    -0.19900
H853        H  0.37322708  0.94277697  0.18019228     0.15800
F854        F  0.34400009  0.93927184  0.10278387    -0.23600
H855        H  0.34632620  0.98618914  0.10585150     0.17500
C856        C  0.37914736  0.03104284  0.15048675     0.25500
C857        C  0.37818183  0.05640318  0.15017832    -0.12100
C858        C  0.35788080  0.06856570  0.14065945    -0.26200
C859        C  0.33846465  0.05495446  0.13123479     0.36500
C860        C  0.33917758  0.02953807  0.13201680    -0.27800
F861        F  0.39961341  0.02005603  0.15880474    -0.19900
H862        H  0.39339651  0.06662280  0.15738526     0.15800
F863        F  0.31832194  0.06617318  0.12242644    -0.23600
H864        H  0.32367375  0.01940515  0.12535263     0.17600
C865        C  0.36624689  0.25557542  0.27840723    -0.27700
C866        C  0.38376197  0.25780080  0.25990413     0.05900
C867        C  0.39935586  0.27809562  0.26007052     0.25500
C868        C  0.39655459  0.29630709  0.27755594    -0.12200
C869        C  0.37861190  0.29440171  0.29559977    -0.26100
C870        C  0.36384137  0.27352329  0.29627310     0.36300
C871        C  0.38462724  0.23983076  0.23970833     0.05900
F872        F  0.41736966  0.28031684  0.24335195    -0.19900
H873        H  0.40850484  0.31195261  0.27701740     0.15800
F874        F  0.34632269  0.27096624  0.31347702    -0.23600
H875        H  0.35381161  0.24031742  0.27858557     0.17500
C876        C  0.38342924  0.21466241  0.24421715     0.25500
C877        C  0.38286539  0.19819152  0.22486660    -0.12100
C878        C  0.38334528  0.20639541  0.20063967    -0.26200
C879        C  0.38498760  0.23151111  0.19613009     0.36500
C880        C  0.38557689  0.24797849  0.21547930    -0.27800
F881        F  0.38285840  0.20593196  0.26730007    -0.19900
H882        H  0.38147291  0.17895250  0.22888422     0.15800
F883        F  0.38595575  0.24021904  0.17305877    -0.23600
H884        H  0.38613877  0.26724919  0.21145580     0.17600
C885        C  0.13981565  0.47858653  0.15591680    -0.27700
C886        C  0.14752902  0.49016473  0.13452063     0.05900
C887        C  0.15608842  0.47580774  0.11513287     0.25500
C888        C  0.15704525  0.45044315  0.11734480    -0.12200
C889        C  0.14953758  0.43887913  0.13889508    -0.26100
C890        C  0.14072771  0.45331920  0.15815785     0.36300
C891        C  0.14798151  0.51718592  0.13345968     0.05900
F892        F  0.16348138  0.48626000  0.09403177    -0.19900
H893        H  0.16392665  0.43986926  0.10223028     0.15800
F894        F  0.13370633  0.44322798  0.17956579    -0.23600
H895        H  0.13373220  0.48921598  0.17133179     0.17500
C896        C  0.12808246  0.53104770  0.14165625     0.25500
C897        C  0.12995269  0.55634915  0.14369125    -0.12100
C898        C  0.15160534  0.56840740  0.13742945    -0.26200
C899        C  0.17100840  0.55460193  0.12786685     0.36500
C900        C  0.16919838  0.52930439  0.12611923    -0.27800
F901        F  0.10689071  0.52008853  0.14796671    -0.19900
H902        H  0.11454359  0.56645125  0.15063351     0.15800
F903        F  0.19213453  0.56532017  0.12096334    -0.23600
H904        H  0.18484563  0.51908802  0.11992072     0.17600
C905        C  0.28784138  0.37631737  0.24681010    -0.27700
C906        C  0.26372334  0.37930850  0.25468718     0.05900
C907        C  0.25894187  0.38105688  0.27970726     0.25500
C908        C  0.27782937  0.37908220  0.29648587    -0.12200
C909        C  0.30189426  0.37531866  0.28873085    -0.26100
C910        C  0.30681897  0.37436654  0.26363732     0.36300
C911        C  0.24348828  0.37923902  0.23693637     0.05900
F912        F  0.23596460  0.38470191  0.28794789    -0.19900
H913        H  0.27348884  0.38011779  0.31566674     0.15800
F914        F  0.32988515  0.37159663  0.25532942    -0.23600
H915        H  0.29191871  0.37485932  0.22760182     0.17500
C916        C  0.24401703  0.39411651  0.21615705     0.25500
C917        C  0.22517892  0.39294806  0.19915550    -0.12100
C918        C  0.20540162  0.37713167  0.20267272    -0.26200
C919        C  0.20470690  0.36256227  0.22368056     0.36500
C920        C  0.22364645  0.36357207  0.24052501    -0.27800
F921        F  0.26258343  0.40994056  0.21242023    -0.19900
H922        H  0.22608946  0.40441958  0.18316269     0.15800
F923        F  0.18629565  0.34658061  0.22749128    -0.23600
H924        H  0.22308489  0.35163132  0.25618516     0.17600
C925        C  0.24972808  0.28455641  0.14529008    -0.27700
C926        C  0.24880684  0.26553190  0.12829990     0.05900
C927        C  0.22953313  0.26486218  0.11147900     0.25500
C928        C  0.21146611  0.28274074  0.11192131    -0.12200
C929        C  0.21246779  0.30181362  0.12884093    -0.26100
C930        C  0.23184527  0.30261654  0.14552623     0.36300
C931        C  0.26758509  0.24614821  0.12859697     0.05900
F932        F  0.22841183  0.24717925  0.09430664    -0.19900
H933        H  0.19681522  0.28184069  0.09879841     0.15800
F934        F  0.23309511  0.32038276  0.16260864    -0.23600
H935        H  0.26410943  0.28519934  0.15871476     0.17500
C936        C  0.29251958  0.25185289  0.12923426     0.25500
C937        C  0.30993915  0.23329998  0.12935867    -0.12100
C938        C  0.30284623  0.20875654  0.12910871    -0.26200
C939        C  0.27787006  0.20309876  0.12867882     0.36500
C940        C  0.26051940  0.22162865  0.12842446    -0.27800
F941        F  0.30006851  0.27534965  0.12928569    -0.19900
H942        H  0.32901260  0.23815226  0.12988741     0.15800
F943        F  0.27011537  0.17966836  0.12817667    -0.23600
H944        H  0.24143754  0.21678189  0.12831651     0.17600
C945        C  0.15230922  0.03136634  0.37382188    -0.27700
C946        C  0.14653742  0.01757637  0.35310476     0.05900
C947        C  0.14222235  0.02983838  0.33102710     0.25500
C948        C  0.14419768  0.05516644  0.32970464    -0.12200
C949        C  0.15079007  0.06889000  0.35021682    -0.26100
C950        C  0.15458231  0.05668871  0.37244495     0.36300
C951        C  0.14617672  0.99048289  0.35425462     0.05900
F952        F  0.13720235  0.01729653  0.31038817    -0.19900
H953        H  0.14125927  0.06396931  0.31233166     0.15800
F954        F  0.16061470  0.06912075  0.39288300    -0.23600
H955        H  0.15526049  0.02248197  0.39114572     0.17500
C956        C  0.16529186  0.97755385  0.36534270     0.25500
C957        C  0.16598979  0.95214928  0.36432435    -0.12100
C958        C  0.14779835  0.93895431  0.35213747    -0.26200
C959        C  0.12809920  0.95184555  0.34196328     0.36500
C960        C  0.12733401  0.97728159  0.34314157    -0.27800
F961        F  0.18405795  0.98945608  0.37604825    -0.19900
H962        H  0.18132072  0.94284680  0.37245780     0.15800
F963        F  0.10990395  0.94005823  0.33020044    -0.23600
H964        H  0.11212476  0.98672896  0.33494726     0.17600
C965        C  0.28934734  0.26006120  0.38039066    -0.27700
C966        C  0.26641383  0.26297411  0.36970796     0.05900
C967        C  0.26047228  0.28526956  0.35866242     0.25500
C968        C  0.27738399  0.30416351  0.35809549    -0.12200
C969        C  0.30054839  0.30116279  0.36841031    -0.26100
C970        C  0.30631538  0.27889942  0.37978315     0.36300
C971        C  0.24867866  0.24282071  0.37025722     0.05900
F972        F  0.23859064  0.28852522  0.34772537    -0.19900
H973        H  0.27248527  0.32098333  0.34907683     0.15800
F974        F  0.32834421  0.27516265  0.39024744    -0.23600
H975        H  0.29409742  0.24315636  0.38932783     0.17500
C976        C  0.25507367  0.21935243  0.36236140     0.25500
C977        C  0.23767417  0.20084775  0.36195829    -0.12100
C978        C  0.21367879  0.20541000  0.36948848    -0.26200
C979        C  0.20758843  0.22879263  0.37806078     0.36500
C980        C  0.22496418  0.24720113  0.37841973    -0.27800
F981        F  0.27786293  0.21454257  0.35419875    -0.19900
H982        H  0.24289409  0.18307007  0.35527650     0.15800
F983        F  0.18476161  0.23415594  0.38574133    -0.23600
H984        H  0.21983362  0.26504249  0.38500319     0.17600
C985        C  0.25343198  0.12892911  0.28052377    -0.27700
C986        C  0.24889145  0.13693627  0.25678320     0.05900
C987        C  0.22543014  0.14473459  0.25042893     0.25500
C988        C  0.20672102  0.14418162  0.26757437    -0.12200
C989        C  0.21106833  0.13579068  0.29132859    -0.26100
C990        C  0.23477563  0.12833112  0.29770353     0.36300
C991        C  0.26847989  0.13628676  0.23849928     0.05900
F992        F  0.22073095  0.15323059  0.22773269    -0.19900
H993        H  0.18882280  0.15040724  0.26223156     0.15800
F994        F  0.24009097  0.12051686  0.32050374    -0.23600
H995        H  0.27142318  0.12277327  0.28565827     0.17500
C996        C  0.29063654  0.14830767  0.24252830     0.25500
C997        C  0.30897400  0.14742078  0.22498953    -0.12100
C998        C  0.30547768  0.13457530  0.20318229    -0.26200
C999        C  0.28333565  0.12229204  0.19937538     0.36500
C1000       C  0.26507021  0.12319524  0.21692428    -0.27800
F1001       F  0.29424802  0.16148166  0.26307240    -0.19900
H1002       H  0.32572096  0.15724672  0.22826171     0.15800
F1003       F  0.27929180  0.10928950  0.17880051    -0.23600
H1004       H  0.24821552  0.11352417  0.21373937     0.17600
C1005       C  0.13276229  0.25753170  0.21470166    -0.27700
C1006       C  0.13408220  0.26568419  0.23888791     0.05900
C1007       C  0.13558099  0.29081581  0.24340607     0.25500
C1008       C  0.13543345  0.30732622  0.22409601    -0.12200
C1009       C  0.13409444  0.29916356  0.19992733    -0.26100
C1010       C  0.13279990  0.27404511  0.19537356     0.36300
C1011       C  0.13425353  0.24782068  0.25913339     0.05900
F1012       F  0.13683001  0.29947792  0.26647372    -0.19900
H1013       H  0.13673100  0.32657648  0.22806551     0.15800
F1014       F  0.13126720  0.26542606  0.17230950    -0.23600
H1015       H  0.13202067  0.23825780  0.21073068     0.17500
C1016       C  0.11745803  0.22852819  0.25969005     0.25500
C1017       C  0.11884543  0.21081178  0.27784453    -0.12100
C1018       C  0.13660957  0.21225946  0.29608719    -0.26200
C1019       C  0.15284768  0.23202453  0.29610623     0.36500
C1020       C  0.15178415  0.24947633  0.27763964    -0.27800
F1021       F  0.09954547  0.22691637  0.24280326    -0.19900
H1022       H  0.10592159  0.19595194  0.27769926     0.15800
F1023       F  0.17042264  0.23393151  0.31332494    -0.23600
H1024       H  0.16511565  0.26396082  0.27745789     0.17600
C1025       C  0.03041487  0.34027710  0.12530551    -0.27700
C1026       C  0.01797440  0.36103845  0.13357739     0.05900
C1027       C  0.03176127  0.38064470  0.14267779     0.25500
C1028       C  0.05705242  0.37885489  0.14475098    -0.12200
C1029       C  0.06939531  0.35772942  0.13738413    -0.26100
C1030       C  0.05579382  0.33870501  0.12684370     0.36300
C1031       C  0.99078315  0.36150059  0.13431160     0.05900
F1032       F  0.02082241  0.40163084  0.14966936    -0.19900
H1033       H  0.06695468  0.39401629  0.15246894     0.15800
F1034       F  0.06682784  0.31823306  0.11857607    -0.23600
H1035       H  0.02045741  0.32477715  0.11840064     0.17500
C1036       C  0.97648333  0.35214882  0.11518616     0.25500
C1037       C  0.95105167  0.35141945  0.11718964    -0.12100
C1038       C  0.93925157  0.36020726  0.13812188    -0.26200
C1039       C  0.95355127  0.37034944  0.15680591     0.36500
C1040       C  0.97887236  0.37058359  0.15501190    -0.27800
F1041       F  0.98698604  0.34384361  0.09446552    -0.19900
H1042       H  0.94060752  0.34369506  0.10240312     0.15800
F1043       F  0.94322871  0.37966964  0.17718784    -0.23600
H1044       H  0.98921078  0.37740167  0.17029534     0.17600
C1045       C  0.98241626  0.15206580  0.32939062    -0.27700
C1046       C  0.99418635  0.15032786  0.35194729     0.05900
C1047       C  0.98013093  0.15071485  0.37336322     0.25500
C1048       C  0.95478030  0.15265540  0.37203429    -0.12200
C1049       C  0.94309119  0.15387687  0.34938482    -0.26100
C1050       C  0.95718275  0.15364266  0.32804239     0.36300
C1051       C  0.02110486  0.14899875  0.35271064     0.05900
F1052       F  0.99082383  0.14868714  0.39550487    -0.19900
H1053       H  0.94425102  0.15275605  0.38867848     0.15800
F1054       F  0.94664292  0.15566871  0.30581498    -0.23600
H1055       H  0.99283763  0.15257712  0.31269063     0.17500
C1056       C  0.03390377  0.13321729  0.33713631     0.25500
C1057       C  0.05927270  0.13376125  0.33631468    -0.12100
C1058       C  0.07239496  0.15005354  0.35091949    -0.26200
C1059       C  0.05961209  0.16521720  0.36715360     0.36500
C1060       C  0.03424104  0.16467860  0.36793595    -0.27800
F1061       F  0.02187803  0.11738097  0.32253473    -0.19900
H1062       H  0.06861282  0.12185608  0.32371544     0.15800
F1063       F  0.07153204  0.18084344  0.38206894    -0.23600
H1064       H  0.02482641  0.17715867  0.37990402     0.17600
C1065       C  0.88510205  0.24873271  0.27635673    -0.27700
C1066       C  0.87742011  0.24367972  0.25257324     0.05900
C1067       C  0.87000534  0.21985277  0.24681863     0.25500
C1068       C  0.86981262  0.20173538  0.26474125    -0.12200
C1069       C  0.87692713  0.20698927  0.28873530    -0.26100
C1070       C  0.88472965  0.23077819  0.29428484     0.36300
C1071       C  0.87681479  0.26352473  0.23420516     0.05900
F1072       F  0.86213764  0.21424468  0.22411914    -0.19900
H1073       H  0.86367473  0.18366431  0.25989352     0.15800
F1074       F  0.89181686  0.23695013  0.31709334    -0.23600
H1075       H  0.89140070  0.26676180  0.28114840     0.17500
C1076       C  0.86676183  0.28634997  0.23999717     0.25500
C1077       C  0.86648916  0.30504038  0.22282042    -0.12100
C1078       C  0.87594881  0.30142081  0.19937671    -0.26200
C1079       C  0.88600687  0.27856697  0.19353264     0.36500
C1080       C  0.88651067  0.25992163  0.21085634    -0.27800
F1081       F  0.85650767  0.29043824  0.26206686    -0.19900
H1082       H  0.85837967  0.32228352  0.22780921     0.15800
F1083       F  0.89539093  0.27413194  0.17114426    -0.23600
H1084       H  0.89469879  0.24267020  0.20605515     0.17600
C1085       C  0.47876777  0.37862318  0.33809988    -0.27700
C1086       C  0.49164040  0.36130445  0.35181105     0.05900
C1087       C  0.47852998  0.34360894  0.36482268     0.25500
C1088       C  0.45321845  0.34276441  0.36330876    -0.12200
C1089       C  0.44037936  0.35938886  0.34871353    -0.26100
C1090       C  0.45342776  0.37764963  0.33638435     0.36300
C1091       C  0.51863556  0.36076085  0.35119245     0.05900
F1092       F  0.49018770  0.32628969  0.37799734    -0.19900
H1093       H  0.44371318  0.32857245  0.37312076     0.15800
F1094       F  0.44190510  0.39406110  0.32198796    -0.23600
H1095       H  0.48842000  0.39268983  0.32825960     0.17500
C1096       C  0.53110979  0.36206403  0.32889126     0.25500
C1097       C  0.55639732  0.36010369  0.32819254    -0.12100
C1098       C  0.56981873  0.35639748  0.34959321    -0.26200
C1099       C  0.55742075  0.35543696  0.37197341     0.36500
C1100       C  0.53209868  0.35778911  0.37270984    -0.27800
F1101       F  0.51880919  0.36410878  0.30759784    -0.19900
H1102       H  0.56543184  0.36073502  0.31070442     0.15800
F1103       F  0.56970830  0.35236614  0.39315124    -0.23600
H1104       H  0.52296728  0.35713915  0.39014295     0.17600
C1105       C  0.74530660  0.28135859  0.38904026    -0.27700
C1106       C  0.74465388  0.26072994  0.37398235     0.05900
C1107       C  0.72459535  0.25742739  0.35845991     0.25500
C1108       C  0.70589379  0.27458320  0.35774779    -0.12200
C1109       C  0.70681339  0.29555663  0.37226423    -0.26100
C1110       C  0.72663451  0.29868001  0.38819392     0.36300
C1111       C  0.76504227  0.24296961  0.37388280     0.05900
F1112       F  0.72354093  0.23810943  0.34315057    -0.19900
H1113       H  0.69099416  0.27178447  0.34518609     0.15800
F1114       F  0.72796683  0.31835952  0.40302152    -0.23600
H1115       H  0.76034536  0.28408880  0.40144439     0.17500
C1116       C  0.78928505  0.25066852  0.37106098     0.25500
C1117       C  0.80802711  0.23357382  0.36875858    -0.12100
C1118       C  0.80302589  0.20850927  0.36940984    -0.26200
C1119       C  0.77880646  0.20087278  0.37286539     0.36500
C1120       C  0.76014450  0.21794904  0.37516920    -0.27800
F1121       F  0.79476974  0.27468282  0.36952824    -0.19900
H1122       H  0.82647333  0.23998270  0.36624447     0.15800
F1123       F  0.77291658  0.17690224  0.37324738    -0.23600
H1124       H  0.74167905  0.21156880  0.37762354     0.17600
C1125       C  0.75361720  0.36446788  0.28280397    -0.27700
C1126       C  0.74871885  0.37737083  0.26128798     0.05900
C1127       C  0.72623107  0.38923303  0.25883619     0.25500
C1128       C  0.70882996  0.38770189  0.27726958    -0.12200
C1129       C  0.71338594  0.37431652  0.29859790    -0.26100
C1130       C  0.73615096  0.36287583  0.30130909     0.36300
C1131       C  0.76650716  0.37744632  0.24096128     0.05900
F1132       F  0.72108948  0.40237453  0.23857854    -0.19900
H1133       H  0.69159937  0.39687954  0.27468718     0.15800
F1134       F  0.74124638  0.34939989  0.32135392    -0.23600
H1135       H  0.77073490  0.35497457  0.28495548     0.17500
C1136       C  0.79080413  0.38444393  0.24458437     0.25500
C1137       C  0.80732361  0.38406381  0.22519082    -0.12100
C1138       C  0.80000344  0.37661599  0.20180903    -0.26200
C1139       C  0.77556701  0.36973665  0.19826771     0.36500
C1140       C  0.75911360  0.37018691  0.21764543    -0.27800
F1141       F  0.79846834  0.39201884  0.26677683    -0.19900
H1142       H  0.82594299  0.38947989  0.22856177     0.15800
F1143       F  0.76749639  0.36225432  0.17619281    -0.23600
H1144       H  0.74053646  0.36447233  0.21450360     0.17600
C1145       C  0.53520258  0.14142891  0.11848020    -0.27700
C1146       C  0.52072475  0.13912773  0.13940296     0.05900
C1147       C  0.53219568  0.13819635  0.16227572     0.25500
C1148       C  0.55748006  0.14025138  0.16409456    -0.12200
C1149       C  0.57187172  0.14358934  0.14324731    -0.26100
C1150       C  0.56048443  0.14374086  0.12031503     0.36300
C1151       C  0.49372638  0.13914953  0.13751790     0.05900
F1152       F  0.51889663  0.13656913  0.18300616    -0.19900
H1153       H  0.56572368  0.14012883  0.18197464     0.15800
F1154       F  0.57373752  0.14611146  0.09963454    -0.23600
H1155       H  0.52686959  0.14171613  0.10064806     0.17500
C1156       C  0.48156520  0.15725890  0.12411002     0.25500
C1157       C  0.45621051  0.15903171  0.12491756    -0.12100
C1158       C  0.44238097  0.14277252  0.13898331    -0.26200
C1159       C  0.45448182  0.12368535  0.15115251     0.36500
C1160       C  0.47985873  0.12201521  0.15042397    -0.27800
F1161       F  0.49422252  0.17417767  0.11135826    -0.19900
H1162       H  0.44746475  0.17372718  0.11514257     0.15800
F1163       F  0.44200404  0.10718789  0.16463228    -0.23600
H1164       H  0.48876022  0.10758558  0.16045415     0.17600
C1165       C  0.74583578  0.22475986  0.11089526    -0.27700
C1166       C  0.74442710  0.24511367  0.12624678     0.05900
C1167       C  0.72437273  0.24728537  0.14203900     0.25500
C1168       C  0.70614109  0.22955436  0.14220992    -0.12200
C1169       C  0.70769629  0.20908927  0.12700128    -0.26100
C1170       C  0.72784654  0.20681522  0.11137944     0.36300
C1171       C  0.76374260  0.26403798  0.12557515     0.05900
F1172       F  0.72272605  0.26616700  0.15784548    -0.19900
H1173       H  0.69104770  0.23156738  0.15470590     0.15800
F1174       F  0.73005380  0.18744099  0.09626705    -0.23600
H1175       H  0.76081235  0.22283195  0.09826759     0.17500
C1176       C  0.78854896  0.25767937  0.12572772     0.25500
C1177       C  0.80643930  0.27574001  0.12575976    -0.12100
C1178       C  0.80005997  0.30048520  0.12556087    -0.26200
C1179       C  0.77524766  0.30683307  0.12493365     0.36500
C1180       C  0.75738742  0.28877079  0.12486188    -0.27800
F1181       F  0.79557161  0.23403413  0.12663731    -0.19900
H1182       H  0.82536136  0.27030679  0.12619023     0.15800
F1183       F  0.76810169  0.33046479  0.12500585    -0.23600
H1184       H  0.73846722  0.29417193  0.12424301     0.17600
C1185       C  0.76138419  0.13453255  0.27878268    -0.27700
C1186       C  0.76893085  0.12939919  0.25491447     0.05900
C1187       C  0.79374749  0.12520095  0.25046365     0.25500
C1188       C  0.81051243  0.12600218  0.26955201    -0.12200
C1189       C  0.80300161  0.13115257  0.29347855    -0.26100
C1190       C  0.77815247  0.13545366  0.29788404     0.26700
C1191       C  0.75083797  0.12888438  0.23483707     0.05900
F1192       F  0.80178650  0.11996924  0.22772647    -0.19900
H1193       H  0.82950916  0.12280486  0.26548074     0.15800
F1194       F  0.76997216  0.14070325  0.32056060    -0.23600
H1195       H  0.74242882  0.13823972  0.28260032     0.17500
C1196       C  0.72906416  0.11569869  0.23722142     0.25500
C1197       C  0.71145535  0.11651104  0.21890652    -0.12100
C1198       C  0.71520878  0.13027457  0.19768869    -0.26200
C1199       C  0.73733590  0.14295659  0.19500377     0.36500
C1200       C  0.75486067  0.14228212  0.21345221    -0.27800
F1201       F  0.72488258  0.10183006  0.25721008    -0.19900
H1202       H  0.69476998  0.10636872  0.22140821     0.15800
F1203       F  0.74178858  0.15669892  0.17497886    -0.23600
H1204       H  0.77136296  0.15280113  0.21128970     0.17600
C1205       C  0.63037596  0.24536604  0.21567499    -0.27700
C1206       C  0.64057028  0.24104145  0.23861590     0.05900
C1207       C  0.64953397  0.21774190  0.24415015     0.25500
C1208       C  0.64826587  0.19914939  0.22692149    -0.12200
C1209       C  0.63807722  0.20343692  0.20387838    -0.26100
C1210       C  0.62912539  0.22684667  0.19841701     0.36300
C1211       C  0.64073764  0.26063454  0.25697494     0.05900
F1212       F  0.65995279  0.21308753  0.26603530    -0.19900
H1213       H  0.65555742  0.18144539  0.23156103     0.15800
F1214       F  0.61921610  0.23201910  0.17641769    -0.23600
H1215       H  0.62303261  0.26309721  0.21121436     0.17500
C1216       C  0.64966581  0.28393405  0.25137231     0.25500
C1217       C  0.64861002  0.30250423  0.26866674    -0.12100
C1218       C  0.63867072  0.29816274  0.29181806    -0.26200
C1219       C  0.62996509  0.27469410  0.29739397     0.36500
C1220       C  0.63096903  0.25623743  0.28008203    -0.27800
F1221       F  0.65977012  0.28861999  0.22934186    -0.19900
H1222       H  0.65574635  0.32025103  0.26395927     0.15800
F1223       F  0.62040202  0.26942476  0.31952720    -0.23600
H1224       H  0.62371190  0.23849695  0.28462951     0.17600
C1225       C  0.53506318  0.62362041  0.34782346    -0.27700
C1226       C  0.52128426  0.64431234  0.35363644     0.05900
C1227       C  0.53330612  0.66640652  0.35806481     0.25500
C1228       C  0.55861381  0.66775054  0.35652173    -0.12200
C1229       C  0.57248413  0.64716637  0.35034627    -0.26100
C1230       C  0.56041261  0.62496394  0.34612025     0.36300
C1231       C  0.49436462  0.64324894  0.35369936     0.05900
F1232       F  0.52049521  0.68696591  0.36282165    -0.19900
H1233       H  0.56730626  0.68515067  0.35959337     0.15800
F1234       F  0.57299804  0.60456338  0.34024155    -0.23600
H1235       H  0.52611953  0.60641303  0.34440567     0.17500
C1236       C  0.48174834  0.63510758  0.33306944     0.25500
C1237       C  0.45642076  0.63654757  0.33217264    -0.12100
C1238       C  0.44308353  0.64613377  0.35179330    -0.26200
C1239       C  0.45570286  0.65313766  0.37296859     0.36500
C1240       C  0.48111021  0.65177645  0.37378792    -0.27800
F1241       F  0.49398072  0.62701395  0.31322284    -0.19900
H1242       H  0.44731927  0.63087646  0.31566985     0.15800
F1243       F  0.44365044  0.66173872  0.39270629    -0.23600
H1244       H  0.49052394  0.65778484  0.39000096     0.17600
C1245       C  0.66152069  0.52797777  0.37035766    -0.27700
C1246       C  0.64986741  0.51530377  0.35146708     0.05900
C1247       C  0.63924542  0.52862178  0.33240708     0.25500
C1248       C  0.64079125  0.55396888  0.33208799    -0.12200
C1249       C  0.65316033  0.56664074  0.35056297    -0.26100
C1250       C  0.66340168  0.55332572  0.36986757     0.36300
C1251       C  0.64991906  0.48828008  0.35126199     0.05900
F1252       F  0.62834789  0.51715773  0.31347517    -0.19900
H1253       H  0.63275990  0.56363745  0.31692486     0.15800
F1254       F  0.67577405  0.56461209  0.38797307    -0.23600
H1255       H  0.66951797  0.51816773  0.38544469     0.17500
C1256       C  0.67149342  0.47542266  0.35600934     0.25500
C1257       C  0.67161333  0.45008540  0.35597126    -0.12100
C1258       C  0.65043622  0.43684816  0.35063877    -0.26200
C1259       C  0.62887328  0.44964335  0.34541956     0.36500
C1260       C  0.62862556  0.47512416  0.34601156    -0.27800
F1261       F  0.69276503  0.48732980  0.35981472    -0.19900
H1262       H  0.68862727  0.44081223  0.35948347     0.15800
F1263       F  0.60805125  0.43764459  0.33984470    -0.23600
H1264       H  0.61173287  0.48458479  0.34243824     0.17600
C1265       C  0.47951510  0.86622743  0.16362441    -0.27700
C1266       C  0.49173589  0.86346199  0.14138047     0.05900
C1267       C  0.47795798  0.85934373  0.12019206     0.25500
C1268       C  0.45263795  0.85723072  0.12150333    -0.12200
C1269       C  0.44048125  0.85956915  0.14384550    -0.26100
C1270       C  0.45421644  0.86453665  0.16489605     0.36300
C1271       C  0.51878105  0.86320358  0.14083193     0.05900
F1272       F  0.48893926  0.85743460  0.09817816    -0.19900
H1273       H  0.44252960  0.85371095  0.10498189     0.15800
F1274       F  0.44339240  0.86683808  0.18695728    -0.23600
H1275       H  0.48962719  0.86891577  0.18029415     0.17500
C1276       C  0.53254036  0.88032090  0.15399171     0.25500
C1277       C  0.55787157  0.87830806  0.15514062    -0.12100
C1278       C  0.57005166  0.85929534  0.14314562    -0.26200
C1279       C  0.55633097  0.84279035  0.12916893     0.36500
C1280       C  0.53103286  0.84467250  0.12824606    -0.27800
F1281       F  0.52153234  0.89897860  0.16581429    -0.19900
H1282       H  0.56790841  0.89142625  0.16584936     0.15800
F1283       F  0.56720676  0.82449868  0.11667422    -0.23600
H1284       H  0.52094668  0.83105432  0.11824297     0.17600
C1285       C  0.63527572  0.97680747  0.15770677    -0.27700
C1286       C  0.64555833  0.98860606  0.13754033     0.05900
C1287       C  0.65651416  0.97456494  0.11923511     0.25500
C1288       C  0.65820769  0.94932978  0.12169092    -0.12200
C1289       C  0.64907632  0.93752383  0.14246514    -0.26100
C1290       C  0.63697029  0.95153100  0.16023146     0.36300
C1291       C  0.64715800  0.01551859  0.13701781     0.05900
F1292       F  0.66598312  0.98533341  0.09914422    -0.19900
H1293       H  0.66727050  0.93910261  0.10752108     0.15800
F1294       F  0.62737288  0.94103105  0.18040608    -0.23600
H1295       H  0.62685484  0.98730123  0.17208639     0.17500
C1296       C  0.62660923  0.03024411  0.14082379     0.25500
C1297       C  0.62911580  0.05552230  0.14259052    -0.12100
C1298       C  0.65210136  0.06654044  0.14051502    -0.26200
C1299       C  0.67252139  0.05177927  0.13600832     0.36500
C1300       C  0.66999310  0.02657662  0.13433966    -0.27800
F1301       F  0.60416462  0.02020237  0.14284838    -0.19900
H1302       H  0.61307084  0.06648314  0.14580428     0.15800
F1303       F  0.69514344  0.06149078  0.13437044    -0.23600
H1304       H  0.68611539  0.01555191  0.13179885     0.17600
C1305       C  0.64027820  0.75374573  0.21210459    -0.27700
C1306       C  0.63535024  0.76032567  0.23620868     0.05900
C1307       C  0.63002635  0.78462879  0.24180140     0.25500
C1308       C  0.62968773  0.80212737  0.22346797    -0.12200
C1309       C  0.63490203  0.79574276  0.19928138    -0.26100
C1310       C  0.64023592  0.77127164  0.19373981     0.36300
C1311       C  0.63630804  0.74190307  0.25558524     0.05900
F1312       F  0.62499346  0.79138294  0.26499631    -0.19900
H1313       H  0.62568588  0.82078756  0.22832630     0.15800
F1314       F  0.64572134  0.76423368  0.17073086    -0.23600
H1315       H  0.64464539  0.73506653  0.20760879     0.17500
C1316       C  0.62154168  0.72112889  0.25454761     0.25500
C1317       C  0.62244403  0.70396644  0.27320408    -0.12100
C1318       C  0.63805755  0.70729659  0.29312828    -0.26200
C1319       C  0.65310512  0.72797420  0.29393274     0.36500
C1320       C  0.65212453  0.74514038  0.27529334    -0.27800
F1321       F  0.60589338  0.71773491  0.23577908    -0.19900
H1322       H  0.61075154  0.68815470  0.27216903     0.15800
F1323       F  0.66924187  0.73128863  0.31230767    -0.23600
H1324       H  0.66392127  0.76089422  0.27607532     0.17600
C1325       C  0.87452874  0.53073653  0.16137806    -0.27700
C1326       C  0.86745981  0.51878640  0.13998620     0.05900
C1327       C  0.86023569  0.53264604  0.11977352     0.25500
C1328       C  0.85928358  0.55793989  0.12127586    -0.12200
C1329       C  0.86548326  0.56994637  0.14293318    -0.26100
C1330       C  0.87361331  0.55607215  0.16292749     0.36300
C1331       C  0.86577701  0.49194625  0.13954657     0.05900
F1332       F  0.85381953  0.52170392  0.09862159    -0.19900
H1333       H  0.85316875  0.56809793  0.10554895     0.15800
F1334       F  0.87981794  0.56676492  0.18428566    -0.23600
H1335       H  0.87986619  0.52037793  0.17726315     0.17500
C1336       C  0.88506408  0.47730039  0.14768334     0.25500
C1337       C  0.88234005  0.45205550  0.14884210    -0.12100
C1338       C  0.86037016  0.44095979  0.14189982    -0.26200
C1339       C  0.84132958  0.45569043  0.13310040     0.36500
C1340       C  0.84405973  0.48088045  0.13208359    -0.27800
F1341       F  0.90652788  0.48739089  0.15447474    -0.19900
H1342       H  0.89738629  0.44121778  0.15547235     0.15800
F1343       F  0.81977420  0.44596792  0.12607465    -0.23600
H1344       H  0.82884754  0.49185685  0.12607549     0.17600
C1345       C  0.97917846  0.62738455  0.13868885    -0.27700
C1346       C  0.99317835  0.64839433  0.13483357     0.05900
C1347       C  0.98133530  0.67095174  0.13254386     0.25500
C1348       C  0.95610332  0.67247370  0.13492782    -0.12200
C1349       C  0.94216762  0.65162830  0.13984066    -0.26100
C1350       C  0.95393084  0.62891443  0.14126373     0.36300
C1351       C  0.02011433  0.64702441  0.13496021     0.05900
F1352       F  0.99424331  0.69173559  0.12929136    -0.19900
H1353       H  0.94755709  0.69018312  0.13373954     0.15800
F1354       F  0.94112639  0.60818588  0.14522247    -0.23600
H1355       H  0.98789017  0.60977197  0.14009460     0.17500
C1356       C  0.03236304  0.63556245  0.15424985     0.25500
C1357       C  0.05769632  0.63636122  0.15563821    -0.12100
C1358       C  0.07141747  0.64862409  0.13789116    -0.26200
C1359       C  0.05915870  0.65933971  0.11805982     0.36500
C1360       C  0.03377523  0.65848447  0.11668530    -0.27800
F1361       F  0.01979102  0.62468940  0.17249781    -0.19900
H1362       H  0.06652162  0.62792170  0.17108741     0.15800
F1363       F  0.07151337  0.67129215  0.10034292    -0.23600
H1364       H  0.02471579  0.66718395  0.10151144     0.17600
C1365       C  0.76385064  0.62061129  0.21287268    -0.27700
C1366       C  0.76713969  0.63035230  0.23618381     0.05900
C1367       C  0.78948201  0.64119659  0.24214692     0.25500
C1368       C  0.80819387  0.64236195  0.22496405    -0.12200
C1369       C  0.80492467  0.63270858  0.20150122    -0.26100
C1370       C  0.78249613  0.62174517  0.19566451     0.36300
C1371       C  0.74714273  0.62936014  0.25414013     0.05900
F1372       F  0.79298168  0.65132323  0.26437943    -0.19900
H1373       H  0.82496318  0.65103405  0.22991113     0.15800
F1374       F  0.77838067  0.61213291  0.17332108    -0.23600
H1375       H  0.74691186  0.61205925  0.20805048     0.17500
C1376       C  0.72401351  0.63862885  0.24850727     0.25500
C1377       C  0.70570668  0.63888621  0.26612391    -0.12100
C1378       C  0.71010103  0.62982682  0.28964006    -0.26200
C1379       C  0.73304134  0.61967041  0.29490162     0.36500
C1380       C  0.75134120  0.61954410  0.27729916    -0.27800
F1381       F  0.71939737  0.64835097  0.22629039    -0.19900
H1382       H  0.68830349  0.64672634  0.26150071     0.15800
F1383       F  0.73801296  0.61005792  0.31708603    -0.23600
H1384       H  0.76885633  0.61191333  0.28177843     0.17600
C1385       C  0.75875036  0.71900864  0.13597446    -0.27700
C1386       C  0.76309186  0.74121969  0.12412391     0.05900
C1387       C  0.78534294  0.74467523  0.11203081     0.25500
C1388       C  0.80307037  0.72650311  0.11234470    -0.12200
C1389       C  0.79899237  0.70444281  0.12458843    -0.26100
C1390       C  0.77644907  0.70073112  0.13621238     0.36300
C1391       C  0.74477608  0.76101006  0.12507162     0.05900
F1392       F  0.78990783  0.76560385  0.09975814    -0.19900
H1393       H  0.82013343  0.72981757  0.10309383     0.15800
F1394       F  0.77175448  0.67986182  0.14855599    -0.23600
H1395       H  0.74185088  0.71605289  0.14563835     0.17500
C1396       C  0.72033049  0.75668761  0.11905059     0.25500
C1397       C  0.70337806  0.77562968  0.11988682    -0.12100
C1398       C  0.71037884  0.79923977  0.12684712    -0.26200
C1399       C  0.73485278  0.80342753  0.13317547     0.36500
C1400       C  0.75177620  0.78448898  0.13223499    -0.27800
F1401       F  0.71291211  0.73427125  0.11188042    -0.19900
H1402       H  0.68468149  0.77173554  0.11512573     0.15800
F1403       F  0.74254695  0.82573824  0.14038012    -0.23600
H1404       H  0.77042584  0.78812551  0.13738985     0.17600
C1405       C  0.97847752  0.88313877  0.35803265    -0.27700
C1406       C  0.99239706  0.86193065  0.36113081     0.05900
C1407       C  0.98051547  0.83932205  0.36237236     0.25500
C1408       C  0.95535933  0.83797781  0.35970980    -0.12200
C1409       C  0.94153885  0.85903264  0.35544086    -0.26100
C1410       C  0.95327710  0.88175661  0.35502692     0.36300
C1411       C  0.01929955  0.86304119  0.36080163     0.05900
F1412       F  0.99331799  0.81833903  0.36471845    -0.19900
H1413       H  0.94679843  0.82024123  0.36006098     0.15800
F1414       F  0.94049432  0.90259341  0.35159609    -0.23600
H1415       H  0.98721970  0.90077383  0.35742261     0.17500
C1416       C  0.03144587  0.87537208  0.34198768     0.25500
C1417       C  0.05659745  0.87333990  0.33954485    -0.12100
C1418       C  0.07017921  0.85895134  0.35571761    -0.26200
C1419       C  0.05817278  0.84773017  0.37539297     0.36500
C1420       C  0.03297968  0.84985546  0.37786383    -0.27800
F1421       F  0.01888367  0.88814399  0.32500843    -0.19900
H1422       H  0.06533036  0.88245076  0.32442363     0.15800
F1423       F  0.07050482  0.83392822  0.39172860    -0.23600
H1424       H  0.02402348  0.84056363  0.39274623     0.17600
C1425       C  0.88986714  0.03165876  0.35046883    -0.27700
C1426       C  0.86948630  0.01783537  0.35747446     0.05900
C1427       C  0.84787312  0.03012697  0.36345644     0.25500
C1428       C  0.84644531  0.05540615  0.36155524    -0.12200
C1429       C  0.86638460  0.06922829  0.35346263    -0.26100
C1430       C  0.88839793  0.05709312  0.34843904     0.36300
C1431       C  0.86999134  0.99070106  0.35690316     0.05900
F1432       F  0.82757043  0.01763020  0.36982381    -0.19900
H1433       H  0.82925105  0.06407816  0.36564876     0.15800
F1434       F  0.90840043  0.06966157  0.34131365    -0.23600
H1435       H  0.90687281  0.02270305  0.34620397     0.17500
C1436       C  0.87845246  0.97821633  0.33623940     0.25500
C1437       C  0.87571751  0.95296896  0.33440723    -0.12100
C1438       C  0.86439613  0.93951771  0.35302152    -0.26200
C1439       C  0.85696584  0.95188174  0.37420068     0.36500
C1440       C  0.85987909  0.97712471  0.37608608    -0.27800
F1441       F  0.88808818  0.99053224  0.31714230    -0.19900
H1442       H  0.88182567  0.94405634  0.31795155     0.15800
F1443       F  0.84636966  0.93977674  0.39292022    -0.23600
H1444       H  0.85364659  0.98619975  0.39240616     0.17600
C1445       C  0.78897866  0.75932647  0.37165857    -0.27700
C1446       C  0.76495702  0.76433945  0.36479443     0.05900
C1447       C  0.75856861  0.78830331  0.35849583     0.25500
C1448       C  0.77610343  0.80675888  0.35876657    -0.12200
C1449       C  0.80025824  0.80172444  0.36551106    -0.26100
C1450       C  0.80647004  0.77770612  0.37207007     0.36300
C1451       C  0.74678915  0.74442469  0.36455158     0.05900
F1452       F  0.73554842  0.79374745  0.35147706    -0.19900
H1453       H  0.77077808  0.82498314  0.35350918     0.15800
F1454       F  0.82949992  0.77174446  0.37861619    -0.23600
H1455       H  0.79419832  0.74105692  0.37687491     0.17500
C1456       C  0.75149441  0.72258869  0.35210077     0.25500
C1457       C  0.73471335  0.70350249  0.35281763    -0.12100
C1458       C  0.71285182  0.70581659  0.36584490    -0.26200
C1459       C  0.70815457  0.72777223  0.37825537     0.36500
C1460       C  0.72499295  0.74681134  0.37756179    -0.27800
F1461       F  0.77209829  0.71992084  0.33878143    -0.19900
H1462       H  0.73867277  0.68702824  0.34278090     0.15800
F1463       F  0.68743361  0.73085716  0.39129469    -0.23600
H1464       H  0.72116897  0.76335599  0.38753755     0.17600
C1465       C  0.79142612  0.86446566  0.24848671    -0.27700
C1466       C  0.76746255  0.87012947  0.25521090     0.05900
C1467       C  0.76255843  0.87680959  0.27935141     0.25500
C1468       C  0.78136265  0.87818029  0.29630563    -0.12200
C1469       C  0.80543934  0.87271683  0.28966053    -0.26100
C1470       C  0.81027744  0.86559414  0.26551449     0.36300
C1471       C  0.74770293  0.86962531  0.23695459     0.05900
F1472       F  0.73963076  0.88254995  0.28644207    -0.19900
H1473       H  0.77695939  0.88338338  0.31477545     0.15800
F1474       F  0.83310078  0.85958593  0.25829958    -0.23600
H1475       H  0.79550208  0.85896746  0.23002192     0.17500
C1476       C  0.74981821  0.88278645  0.21516280     0.25500
C1477       C  0.73068340  0.88309110  0.19848878    -0.12100
C1478       C  0.70904668  0.87033481  0.20319958    -0.26200
C1479       C  0.70709895  0.85682608  0.22490674     0.36500
C1480       C  0.72628120  0.85654472  0.24157143    -0.27800
F1481       F  0.77012142  0.89594322  0.21031127    -0.19900
H1482       H  0.73276208  0.89353146  0.18191476     0.15800
F1483       F  0.68692544  0.84350354  0.22988831    -0.23600
H1484       H  0.72446434  0.84598631  0.25810798     0.17600
C1485       C  0.86015838  0.74826653  0.21786253    -0.27700
C1486       C  0.87673266  0.74572981  0.23711655     0.05900
C1487       C  0.89291954  0.72599030  0.23722543     0.25500
C1488       C  0.89250330  0.70901676  0.21835612    -0.12200
C1489       C  0.87600787  0.71157357  0.19900580    -0.26100
C1490       C  0.85980259  0.73136872  0.19890349     0.36300
C1491       C  0.87713192  0.76387629  0.25690166     0.05900
F1492       F  0.90950967  0.72338215  0.25530666    -0.19900
H1493       H  0.90507650  0.69410237  0.21879604     0.15800
F1494       F  0.84309371  0.73404878  0.18093323    -0.23600
H1495       H  0.84742557  0.76307263  0.21767624     0.17500
C1496       C  0.87947721  0.78873473  0.25159566     0.25500
C1497       C  0.87986093  0.80581128  0.27033952    -0.12100
C1498       C  0.87763586  0.79843498  0.29471237    -0.26200
C1499       C  0.87524117  0.77348184  0.30001455     0.36500
C1500       C  0.87511225  0.75637542  0.28122266    -0.27800
F1501       F  0.88171115  0.79649909  0.22827034    -0.19900
H1502       H  0.88148581  0.82482375  0.26572389     0.15800
F1503       F  0.87308069  0.76552610  0.32328619    -0.23600
H1504       H  0.87311477  0.73738341  0.28559379     0.17600
C1505       C  0.17231880  0.36394425  0.02179714    -0.27700
C1506       C  0.15008449  0.36047067  0.00991890     0.05900
C1507       C  0.12916590  0.35536318  0.02361823     0.25500
C1508       C  0.13058884  0.35358361  0.04892112    -0.12200
C1509       C  0.15292561  0.35672602  0.06090283    -0.26100
C1510       C  0.17384987  0.36198806  0.04704338     0.36300
C1511       C  0.14934770  0.36022937  0.98314553     0.05900
F1512       F  0.10740846  0.35207121  0.01247671    -0.19900
H1513       H  0.11422188  0.34961664  0.05912833     0.15800
F1514       F  0.19598031  0.36436229  0.05769827    -0.23600
H1515       H  0.18867846  0.36742399  0.01138969     0.17500
C1516       C  0.15593293  0.38081033  0.96954317     0.25500
C1517       C  0.15682420  0.37959701  0.94414196    -0.12100
C1518       C  0.15130425  0.35778824  0.93197982    -0.26200
C1519       C  0.14439263  0.33728840  0.94583191     0.36500
C1520       C  0.14338409  0.33863441  0.97111942    -0.27800
F1521       F  0.16146478  0.40202450  0.98085999    -0.19900
H1522       H  0.16209074  0.39565147  0.93401755     0.15800
F1523       F  0.13929516  0.31564227  0.93513523    -0.23600
H1524       H  0.13858149  0.32253752  0.98143235     0.17600
C1525       C  0.37553114  0.16463176  0.96971024    -0.27700
C1526       C  0.35838088  0.15074167  0.98256843     0.05900
C1527       C  0.34119187  0.13708673  0.96947368     0.25500
C1528       C  0.34126350  0.13736714  0.94405624    -0.12200
C1529       C  0.35819291  0.15152923  0.93115800    -0.26100
C1530       C  0.37543206  0.16515457  0.94427698     0.36300
C1531       C  0.35818107  0.15105936  0.00955939     0.05900
F1532       F  0.32441037  0.12333344  0.98124131    -0.19900
H1533       H  0.32763785  0.12689777  0.93445142     0.15800
F1534       F  0.39221819  0.17896850  0.93259241    -0.23600
H1535       H  0.38876212  0.17550003  0.97942099     0.17500
C1536       C  0.37956559  0.14677702  0.02294970     0.25500
C1537       C  0.37928247  0.14793118  0.04838068    -0.12100
C1538       C  0.35760018  0.15286234  0.06086883    -0.26200
C1539       C  0.33617186  0.15695143  0.04749725     0.36500
C1540       C  0.33654895  0.15617968  0.02210509    -0.27800
F1541       F  0.40059355  0.14093163  0.01144916    -0.19900
H1542       H  0.39592144  0.14456475  0.05835608     0.15800
F1543       F  0.31502447  0.16254224  0.05894469    -0.23600
H1544       H  0.31996443  0.15996721  0.01218720     0.17600
C1545       C  0.26895532  0.23027910  0.88587454    -0.27700
C1546       C  0.26915089  0.24950078  0.86907026     0.05900
C1547       C  0.28818380  0.25102221  0.85206668     0.25500
C1548       C  0.30614106  0.23305859  0.85137782    -0.12200
C1549       C  0.30533726  0.21325671  0.86750438    -0.26100
C1550       C  0.28684915  0.21226825  0.88513292     0.36300
C1551       C  0.24891730  0.26724056  0.86869010     0.05900
F1552       F  0.28877823  0.26921696  0.83538476    -0.19900
H1553       H  0.32021853  0.23418417  0.83764261     0.15800
F1554       F  0.28613114  0.19398950  0.90171645    -0.23600
H1555       H  0.25472797  0.22909920  0.89944162     0.17500
C1556       C  0.22471217  0.25922412  0.86699993     0.25500
C1557       C  0.20567393  0.27601306  0.86587508    -0.12100
C1558       C  0.21037022  0.30110168  0.86658847    -0.26200
C1559       C  0.23468886  0.30910169  0.86839664     0.36500
C1560       C  0.25370064  0.29227105  0.86940974    -0.27800
F1561       F  0.21952595  0.23513010  0.86571116    -0.19900
H1562       H  0.18721371  0.26934033  0.86440254     0.15800
F1563       F  0.24024962  0.33315528  0.86865824    -0.23600
H1564       H  0.27223153  0.29879312  0.87075947     0.17600
C1565       C  0.38422123  0.35892403  0.46708281    -0.27700
C1566       C  0.36339034  0.36486934  0.48061714     0.05900
C1567       C  0.34164574  0.37013058  0.46824571     0.25500
C1568       C  0.34066387  0.36876728  0.44297222    -0.12200
C1569       C  0.36117818  0.36182196  0.42943310    -0.26100
C1570       C  0.38317745  0.35728667  0.44172714     0.36300
C1571       C  0.36385902  0.36428094  0.50756085     0.05900
F1572       F  0.32092789  0.37531806  0.48061434    -0.19900
H1573       H  0.32345725  0.37229322  0.43407710     0.15800
F1574       F  0.40358263  0.35094235  0.42938504    -0.23600
H1575       H  0.40126911  0.35520987  0.47619927     0.17500
C1576       C  0.37335542  0.34406706  0.52003731     0.25500
C1577       C  0.37118085  0.34244283  0.54527759    -0.12100
C1578       C  0.35935773  0.36079005  0.55859443    -0.26200
C1579       C  0.35070108  0.38146232  0.54616190     0.36500
C1580       C  0.35312769  0.38317821  0.52095085    -0.27800
F1581       F  0.38354354  0.32523025  0.50776900    -0.19900
H1582       H  0.37813393  0.32637053  0.55430218     0.15800
F1583       F  0.33923332  0.39973947  0.55813622    -0.23600
H1584       H  0.34607711  0.39911928  0.51177099     0.17600
C1585       C  0.38548959  0.24712160  0.77550603    -0.27700
C1586       C  0.37521676  0.24284319  0.75257944     0.05900
C1587       C  0.36561505  0.21974075  0.74739069     0.25500
C1588       C  0.36583679  0.20146590  0.76510627    -0.12200
C1589       C  0.37574699  0.20580648  0.78829260    -0.26100
C1590       C  0.38586648  0.22885673  0.79319562     0.36300
C1591       C  0.37437467  0.26263324  0.73430108     0.05900
F1592       F  0.35526331  0.21510806  0.72547783    -0.19900
H1593       H  0.35781892  0.18401353  0.76076735     0.15800
F1594       F  0.39595440  0.23395407  0.81511810    -0.23600
H1595       H  0.39325727  0.26472202  0.77971561     0.17500
C1596       C  0.36346034  0.28507947  0.73982392     0.25500
C1597       C  0.36258401  0.30359682  0.72239354    -0.12100
C1598       C  0.37261225  0.30013355  0.69913532    -0.26200
C1599       C  0.38384620  0.27767821  0.69378702     0.36500
C1600       C  0.38458549  0.25916379  0.71120869    -0.27800
F1601       F  0.35303175  0.28884736  0.76186784    -0.19900
H1602       H  0.35371625  0.32055982  0.72703165     0.15800
F1603       F  0.39425847  0.27352827  0.67180116    -0.23600
H1604       H  0.39333882  0.24209361  0.70673008     0.17600
C1605       C  0.25458314  0.36679468  0.71053022    -0.27700
C1606       C  0.25987132  0.37841852  0.73265461     0.05900
C1607       C  0.28268668  0.38961054  0.73552348     0.25500
C1608       C  0.30004389  0.38840661  0.71700096    -0.12200
C1609       C  0.29499482  0.37631087  0.69506949    -0.26100
C1610       C  0.27182247  0.36586739  0.69183703     0.36300
C1611       C  0.24195254  0.37808282  0.75292492     0.05900
F1612       F  0.28816679  0.40191322  0.75619020    -0.19900
H1613       H  0.31755387  0.39691552  0.71991686     0.15800
F1614       F  0.26597928  0.35409791  0.67095328    -0.23600
H1615       H  0.23726064  0.35782452  0.70791603     0.17500
C1616       C  0.21733745  0.38374559  0.74895028     0.25500
C1617       C  0.20070453  0.38293475  0.76817058    -0.12100
C1618       C  0.20814609  0.37644329  0.79179158    -0.26200
C1619       C  0.23281461  0.37078511  0.79573714     0.36500
C1620       C  0.24942002  0.37157185  0.77648471    -0.27800
F1621       F  0.20937095  0.39042687  0.72656652    -0.19900
H1622       H  0.18187266  0.38730668  0.76445522     0.15800
F1623       F  0.24094927  0.36411145  0.81805687    -0.23600
H1624       H  0.26816345  0.36664206  0.77994254     0.17600
C1625       C  0.15608928  0.12619231  0.52327395    -0.27700
C1626       C  0.14927933  0.14657192  0.50949341     0.05900
C1627       C  0.14233658  0.16801691  0.52145880     0.25500
C1628       C  0.14227735  0.16902885  0.54676902    -0.12200
C1629       C  0.14939479  0.14880073  0.56070224    -0.26100
C1630       C  0.15623660  0.12723207  0.54867355     0.36300
C1631       C  0.14999667  0.14573965  0.48266866     0.05900
F1632       F  0.13654955  0.18832762  0.50865645    -0.19900
H1633       H  0.13725006  0.18597689  0.55544122     0.15800
F1634       F  0.16319468  0.10720700  0.56132713    -0.23600
H1635       H  0.16136992  0.10946618  0.51431630     0.17500
C1636       C  0.17131808  0.13886603  0.47044012     0.25500
C1637       C  0.17231961  0.13979123  0.44511578    -0.12100
C1638       C  0.15216132  0.14772207  0.43152152    -0.26200
C1639       C  0.13059998  0.15400681  0.44381246     0.36500
C1640       C  0.12960364  0.15295339  0.46915043    -0.27800
F1641       F  0.19154899  0.13238960  0.48300325    -0.19900
H1642       H  0.18920937  0.13498885  0.43620447     0.15800
F1643       F  0.11058296  0.16151543  0.43148789    -0.23600
H1644       H  0.11293638  0.15807950  0.47830298     0.17600
C1645       C  0.11171784  0.24580855  0.71589325    -0.27700
C1646       C  0.12732462  0.24473739  0.73608695     0.05900
C1647       C  0.14346382  0.22504811  0.73830892     0.25500
C1648       C  0.14378012  0.20671260  0.72083248    -0.12200
C1649       C  0.12828025  0.20771305  0.70058373    -0.26100
C1650       C  0.11221548  0.22751611  0.69817887     0.36300
C1651       C  0.12706331  0.26411634  0.75478585     0.05900
F1652       F  0.15950250  0.22390906  0.75702583    -0.19900
H1653       H  0.15663591  0.19192502  0.72289161     0.15800
F1654       F  0.09674693  0.22901365  0.67901551    -0.23600
H1655       H  0.09901985  0.26074091  0.71394791     0.17500
C1656       C  0.12974490  0.28870026  0.74832566     0.25500
C1657       C  0.13167044  0.30651126  0.76634614    -0.12100
C1658       C  0.13074396  0.30020126  0.79111194    -0.26200
C1659       C  0.12720347  0.27563117  0.79750663     0.36500
C1660       C  0.12541317  0.25786228  0.77947560    -0.27800
F1661       F  0.13152072  0.29540597  0.72464359    -0.19900
H1662       H  0.13419688  0.32526548  0.76087066     0.15800
F1663       F  0.12612028  0.26856229  0.82113416    -0.23600
H1664       H  0.12303574  0.23904612  0.78481937     0.17600
C1665       C  0.28138516  0.12061839  0.75536755    -0.27700
C1666       C  0.26156971  0.13673015  0.75679574     0.05900
C1667       C  0.25972482  0.15209674  0.77722529     0.25500
C1668       C  0.27721775  0.15117455  0.79564805    -0.12200
C1669       C  0.29723564  0.13539654  0.79392948    -0.26100
C1670       C  0.29921230  0.12015911  0.77348657     0.36300
C1671       C  0.24291643  0.13721566  0.73711098     0.05900
F1672       F  0.24149798  0.16863378  0.77908259    -0.19900
H1673       H  0.27544904  0.16339465  0.81099114     0.15800
F1674       F  0.31820597  0.10458887  0.77106942    -0.23600
H1675       H  0.28303918  0.10815245  0.74023402     0.17500
C1676       C  0.24966094  0.13631045  0.71238785     0.25500
C1677       C  0.23192084  0.13634774  0.69416294    -0.12100
C1678       C  0.20710975  0.13732447  0.70008417    -0.26200
C1679       C  0.20034518  0.13865331  0.72473006     0.36500
C1680       C  0.21805508  0.13836216  0.74296002    -0.27800
F1681       F  0.27341211  0.13592127  0.70572194    -0.19900
H1682       H  0.23763536  0.13556074  0.67533252     0.15800
F1683       F  0.17664688  0.14079867  0.73127042    -0.23600
H1684       H  0.21222040  0.13878266  0.76175153     0.17600
C1685       C  0.28150569  0.25944535  0.63042034    -0.27700
C1686       C  0.25929835  0.26572448  0.61951707     0.05900
C1687       C  0.25660254  0.28905262  0.60941132     0.25500
C1688       C  0.27585695  0.30566893  0.61023838    -0.12200
C1689       C  0.29814342  0.29939164  0.62117425    -0.26100
C1690       C  0.30074818  0.27598273  0.63125363     0.36300
C1691       C  0.23914296  0.24780020  0.61917795     0.05900
F1692       F  0.23552142  0.29565292  0.59841185    -0.19900
H1693       H  0.27325191  0.32353211  0.60235052     0.15800
F1694       F  0.32165034  0.26912977  0.64243016    -0.23600
H1695       H  0.28383862  0.24172086  0.63870309     0.17500
C1696       C  0.24328890  0.22388698  0.61121308     0.25500
C1697       C  0.22498034  0.20641507  0.61296250    -0.12100
C1698       C  0.20206556  0.21232981  0.62263676    -0.26200
C1699       C  0.19761134  0.23654956  0.62981062     0.36500
C1700       C  0.21603816  0.25405186  0.62808794    -0.27800
F1701       F  0.26513301  0.21738098  0.60175201    -0.19900
H1702       H  0.22893640  0.18807670  0.60697781     0.15800
F1703       F  0.17574713  0.24326298  0.63907598    -0.23600
H1704       H  0.21248674  0.27234649  0.63445495     0.17600
C1705       C  0.35861340  0.53095231  0.61584167    -0.27700
C1706       C  0.36193654  0.51704232  0.63698905     0.05900
C1707       C  0.36476036  0.52890880  0.65941121     0.25500
C1708       C  0.36424698  0.55424900  0.66060372    -0.12200
C1709       C  0.36061589  0.56826289  0.63953539    -0.26100
C1710       C  0.35788971  0.55636048  0.61703961     0.36300
C1711       C  0.36153753  0.49017561  0.63590308     0.05900
F1712       F  0.36697749  0.51595233  0.68031502    -0.19900
H1713       H  0.36596516  0.56289167  0.67821123     0.15800
F1714       F  0.35458790  0.56920763  0.59622239    -0.23600
H1715       H  0.35648551  0.52208497  0.59839446     0.17500
C1716       C  0.34140258  0.47790724  0.62617344     0.25500
C1717       C  0.34005609  0.45258514  0.62747206    -0.12100
C1718       C  0.35876395  0.43897412  0.63843093    -0.26200
C1719       C  0.37950332  0.45127601  0.64706579     0.36500
C1720       C  0.38072998  0.47665012  0.64589868    -0.27800
F1721       F  0.32245857  0.49046679  0.61654416    -0.19900
H1722       H  0.32394506  0.44370059  0.62048026     0.15800
F1723       F  0.39838631  0.43895681  0.65709597    -0.23600
H1724       H  0.39655590  0.48583625  0.65316239     0.17600
C1725       C  0.34136106  0.64344270  0.52022791    -0.27700
C1726       C  0.36412351  0.64328764  0.50870638     0.05900
C1727       C  0.38523856  0.64543496  0.52305790     0.25500
C1728       C  0.38340456  0.64815698  0.54832406    -0.12200
C1729       C  0.36056336  0.64840043  0.55973259    -0.26100
C1730       C  0.33952732  0.64575525  0.54539422     0.36300
C1731       C  0.36528572  0.64262606  0.48170807     0.05900
F1732       F  0.40762572  0.64470629  0.51271419    -0.19900
H1733       H  0.39985532  0.64992194  0.55899241     0.15800
F1734       F  0.31702667  0.64637014  0.55552311    -0.23600
H1735       H  0.32479721  0.64250299  0.50963727     0.17500
C1736       C  0.35043429  0.62669874  0.46824005     0.25500
C1737       C  0.34922093  0.62858115  0.44291783    -0.12100
C1738       C  0.36280626  0.64628794  0.43047146    -0.26200
C1739       C  0.37871047  0.66126820  0.44384151     0.36500
C1740       C  0.37975366  0.65951208  0.46916139    -0.27800
F1741       F  0.33679629  0.60952127  0.47957130    -0.19900
H1742       H  0.33706733  0.61658895  0.43312307     0.15800
F1743       F  0.39295625  0.67798964  0.43258356    -0.23600
H1744       H  0.39120318  0.67211285  0.47902754     0.17600
C1745       C  0.16725653  0.52782294  0.86294190    -0.27700
C1746       C  0.14588266  0.51690557  0.85417587     0.05900
C1747       C  0.12704761  0.53185104  0.84539640     0.25500
C1748       C  0.13023986  0.55703431  0.84408250    -0.12200
C1749       C  0.15189849  0.56779128  0.85217824    -0.26100
C1750       C  0.17020665  0.55303845  0.86216121     0.36300
C1751       C  0.14403589  0.48998491  0.85338666     0.05900
F1752       F  0.10552279  0.52216158  0.83823970    -0.19900
H1753       H  0.11574645  0.56819136  0.83675839     0.15800
F1754       F  0.19146557  0.56283820  0.86995424    -0.23600
H1755       H  0.18206076  0.51673459  0.86970884     0.17500
C1756       C  0.13667684  0.47792117  0.83202605     0.25500
C1757       C  0.13699812  0.45253862  0.83089045    -0.12100
C1758       C  0.14540100  0.43880327  0.85065067    -0.26200
C1759       C  0.15244171  0.45072841  0.87209694     0.36500
C1760       C  0.15151812  0.47608038  0.87348895    -0.27800
F1761       F  0.13075551  0.49060978  0.81169872    -0.19900
H1762       H  0.13197375  0.44364562  0.81405423     0.15800
F1763       F  0.16039382  0.43787112  0.89161740    -0.23600
H1764       H  0.15716288  0.48491959  0.89014666     0.17600
C1765       C  0.16925549  0.63308664  0.97006798    -0.27700
C1766       C  0.15057023  0.64534128  0.98235688     0.05900
C1767       C  0.13278183  0.65773221  0.96883230     0.25500
C1768       C  0.13415280  0.65843053  0.94350368    -0.12200
C1769       C  0.15334672  0.64693535  0.93115190    -0.26100
C1770       C  0.17071109  0.63382030  0.94472318     0.36300
C1771       C  0.15075033  0.64660040  0.00921618     0.05900
F1772       F  0.11419040  0.66937675  0.98013905    -0.19900
H1773       H  0.12046824  0.66855713  0.93360516     0.15800
F1774       F  0.18941820  0.62212077  0.93366877    -0.23600
H1775       H  0.18326442  0.62362037  0.98017198     0.17500
C1776       C  0.15326773  0.62552836  0.02349439     0.25500
C1777       C  0.15475359  0.62733819  0.04880490    -0.12100
C1778       C  0.15358019  0.65013651  0.06025735    -0.26200
C1779       C  0.15085449  0.67118028  0.04591207     0.36500
C1780       C  0.14952467  0.66934604  0.02067476    -0.27800
F1781       F  0.15403128  0.60321416  0.01299196    -0.19900
H1782       H  0.15674308  0.61088599  0.05946441     0.15800
F1783       F  0.15037782  0.69364665  0.05612858    -0.23600
H1784       H  0.14812500  0.68583870  0.00998192     0.17600
C1785       C  0.28935847  0.63868294  0.74191679    -0.27700
C1786       C  0.26693539  0.62801078  0.73610925     0.05900
C1787       C  0.26356057  0.61799981  0.71286905     0.25500
C1788       C  0.28216982  0.61920995  0.69562085    -0.12200
C1789       C  0.30451249  0.63033465  0.70123079    -0.26100
C1790       C  0.30803900  0.63977265  0.72476867     0.36300
C1791       C  0.24703873  0.62803684  0.75420971     0.05900
F1792       F  0.24235320  0.60687744  0.70691952    -0.19900
H1793       H  0.27897629  0.61157079  0.67776118     0.15800
F1794       F  0.32924883  0.65064048  0.73113271    -0.23600
H1795       H  0.29223808  0.64670226  0.75966504     0.17500
C1796       C  0.25111474  0.61977706  0.77802234     0.25500
C1797       C  0.23261220  0.62100957  0.79531934    -0.12100
C1798       C  0.20967978  0.63057388  0.78929872    -0.26200
C1799       C  0.20553704  0.63864208  0.76532159     0.36500
C1800       C  0.22408438  0.63730542  0.74799739    -0.27800
F1801       F  0.27297594  0.61036566  0.78453898    -0.19900
H1802       H  0.23637727  0.61461561  0.81355974     0.15800
F1803       F  0.18383597  0.64833213  0.75866211    -0.23600
H1804       H  0.22070315  0.64409644  0.72981790     0.17600
C1805       C  0.35546914  0.97670698  0.87494229    -0.27700
C1806       C  0.36062746  0.99080163  0.85426233     0.05900
C1807       C  0.36529042  0.97893600  0.83210182     0.25500
C1808       C  0.36477733  0.95357408  0.83070452    -0.12200
C1809       C  0.35933442  0.93938322  0.85125979    -0.26100
C1810       C  0.35472845  0.95126012  0.87351853     0.36300
C1811       C  0.36052048  0.01781938  0.85545860     0.05900
F1812       F  0.36938926  0.99191421  0.81150400    -0.19900
H1813       H  0.36805015  0.94506458  0.81325689     0.15800
F1814       F  0.34946058  0.93838360  0.89391244    -0.23600
H1815       H  0.35197380  0.98543944  0.89223719     0.17500
C1816       C  0.34042654  0.03054442  0.86485246     0.25500
C1817       C  0.33943416  0.05595783  0.86334102    -0.12100
C1818       C  0.35842713  0.06923012  0.85247032    -0.26200
C1819       C  0.37907711  0.05646549  0.84417440     0.36500
C1820       C  0.38001534  0.03109282  0.84569794    -0.27800
F1821       F  0.32115668  0.01836843  0.87430397    -0.19900
H1822       H  0.32338248  0.06518218  0.87003874     0.15800
F1823       F  0.39818553  0.06831960  0.83400485    -0.23600
H1824       H  0.39587610  0.02169904  0.83876157     0.17600
C1825       C  0.38582773  0.85028396  0.96840032    -0.27700
C1826       C  0.36658347  0.86001249  0.98206267     0.05900
C1827       C  0.34605268  0.86907503  0.96990369     0.25500
C1828       C  0.34462571  0.86800031  0.94459698    -0.12200
C1829       C  0.36358758  0.85781404  0.93080473    -0.26100
C1830       C  0.38445756  0.84921262  0.94299799     0.36300
C1831       C  0.36724022  0.85956916  0.00898806     0.05900
F1832       F  0.32683839  0.87795573  0.98258300    -0.19900
H1833       H  0.32829916  0.87467090  0.93584812     0.15800
F1834       F  0.40335183  0.83935949  0.93054357    -0.23600
H1835       H  0.40184824  0.84329214  0.97747218     0.17500
C1836       C  0.37035044  0.83751572  0.02148890     0.25500
C1837       C  0.36860577  0.83682274  0.04682153    -0.12100
C1838       C  0.36359559  0.85804706  0.06022880    -0.26200
C1839       C  0.36134593  0.88027785  0.04772195     0.36500
C1840       C  0.36313585  0.88095253  0.02233426    -0.27800
F1841       F  0.37378355  0.81642181  0.00913343    -0.19900
H1842       H  0.37035806  0.81941678  0.05588454     0.15800
F1843       F  0.35729734  0.90132417  0.05993338    -0.23600
H1844       H  0.36095892  0.89816713  0.01300007     0.17600
C1845       C  0.36874964  0.75689854  0.77804676    -0.27700
C1846       C  0.37888730  0.76250980  0.75531554     0.05900
C1847       C  0.38844212  0.78591461  0.75142823     0.25500
C1848       C  0.38754101  0.80338853  0.76986471    -0.12200
C1849       C  0.37717419  0.79790459  0.79258052    -0.26100
C1850       C  0.36786268  0.77431606  0.79651953     0.36300
C1851       C  0.37853726  0.74422475  0.73549270     0.05900
F1852       F  0.39888415  0.79182462  0.72985959    -0.19900
H1853       H  0.39492848  0.82128855  0.76628478     0.15800
F1854       F  0.35736588  0.76811282  0.81798396    -0.23600
H1855       H  0.36094126  0.73911561  0.78133342     0.17500
C1856       C  0.38668627  0.72030047  0.73941752     0.25500
C1857       C  0.38557564  0.70315635  0.72069216    -0.12100
C1858       C  0.37635960  0.70946929  0.69766880    -0.26200
C1859       C  0.36829477  0.73348619  0.69377965     0.36500
C1860       C  0.36936546  0.75057244  0.71253734    -0.27800
F1861       F  0.39607572  0.71357644  0.76123229    -0.19900
H1862       H  0.39192306  0.68485900  0.72429486     0.15800
F1863       F  0.35910961  0.74052669  0.67198533    -0.23600
H1864       H  0.36261069  0.76877721  0.70922014     0.17600
C1865       C  0.28748856  0.76159347  0.88320226    -0.27700
C1866       C  0.26701317  0.76264392  0.86805637     0.05900
C1867       C  0.26372936  0.78286719  0.85279272     0.25500
C1868       C  0.28084826  0.80161108  0.85254410    -0.12200
C1869       C  0.30156194  0.80048210  0.86744208    -0.26100
C1870       C  0.30463425  0.78036371  0.88300065     0.36300
C1871       C  0.24897964  0.74275204  0.86834128     0.05900
F1872       F  0.24431904  0.78412643  0.83761012    -0.19900
H1873       H  0.27816919  0.81677868  0.84024845     0.15800
F1874       F  0.32396448  0.77898472  0.89826865    -0.23600
H1875       H  0.29007327  0.74627618  0.89532448     0.17500
C1876       C  0.25572265  0.71883244  0.86246751     0.25500
C1877       C  0.23822223  0.70038339  0.86191952    -0.12100
C1878       C  0.21375412  0.70544234  0.86742700    -0.26200
C1879       C  0.20722940  0.72942524  0.87378858     0.36500
C1880       C  0.22470202  0.74782643  0.87409887    -0.27800
F1881       F  0.27906600  0.71350429  0.85649180    -0.19900
H1882       H  0.24380844  0.68217169  0.85691755     0.15800
F1883       F  0.18391647  0.73533315  0.87929878    -0.23600
H1884       H  0.21926750  0.76616715  0.87881349     0.17600
C1885       C  0.16711896  0.87014410  0.52215817    -0.27700
C1886       C  0.14778487  0.85903810  0.50972217     0.05900
C1887       C  0.12921278  0.84787686  0.52340312     0.25500
C1888       C  0.13039482  0.84739784  0.54882954    -0.12200
C1889       C  0.15000362  0.85809984  0.56123719    -0.26100
C1890       C  0.16818096  0.86992661  0.54754443     0.36300
C1891       C  0.14776419  0.85832914  0.48261967     0.05900
F1892       F  0.10982107  0.83749266  0.51224822    -0.19900
H1893       H  0.11606533  0.83827797  0.55879247     0.15800
F1894       F  0.18730242  0.88097396  0.55854060    -0.23600
H1895       H  0.18187999  0.87852351  0.51218361     0.17500
C1896       C  0.15398669  0.87897247  0.46875436     0.25500
C1897       C  0.15556278  0.87752876  0.44339505    -0.12100
C1898       C  0.15075504  0.85559812  0.43121525    -0.26200
C1899       C  0.14376022  0.83514016  0.44505043     0.36500
C1900       C  0.14254857  0.83651762  0.47040303    -0.27800
F1901       F  0.15839511  0.90065187  0.47966730    -0.19900
H1902       H  0.16067174  0.89364384  0.43328442     0.15800
F1903       F  0.13867387  0.81353317  0.43426357    -0.23600
H1904       H  0.13812928  0.82021984  0.48053883     0.17600
C1905       C  0.15443793  0.97720959  0.61799356    -0.27700
C1906       C  0.14566695  0.99086125  0.63776038     0.05900
C1907       C  0.13811205  0.97840268  0.65882950     0.25500
C1908       C  0.13993684  0.95309438  0.66022457    -0.12200
C1909       C  0.14958214  0.93949240  0.64085110    -0.26100
C1910       C  0.15659984  0.95185977  0.61951671     0.36300
C1911       C  0.14571664  0.01799042  0.63701967     0.05900
F1912       F  0.13005126  0.99071261  0.67863575    -0.19900
H1913       H  0.13438262  0.94420911  0.67690249     0.15800
F1914       F  0.16587984  0.93961473  0.60021169    -0.23600
H1915       H  0.15991151  0.98621520  0.60136118     0.17500
C1916       C  0.16621477  0.03088118  0.62867720     0.25500
C1917       C  0.16717929  0.05621943  0.63060659    -0.12100
C1918       C  0.14787394  0.06936940  0.64099421    -0.26200
C1919       C  0.12688957  0.05659261  0.64829871     0.36500
C1920       C  0.12585218  0.03124748  0.64615926    -0.27800
F1921       F  0.18592799  0.01898680  0.61981117    -0.19900
H1922       H  0.18347790  0.06547837  0.62458346     0.15800
F1923       F  0.10748682  0.06841860  0.65793102    -0.23600
H1924       H  0.10956139  0.02190750  0.65206874     0.17600
C1925       C  0.25685807  0.71916287  0.62712280    -0.27700
C1926       C  0.26332309  0.74285445  0.61997985     0.05900
C1927       C  0.28758008  0.74741643  0.61321148     0.25500
C1928       C  0.30500137  0.72893402  0.61442386    -0.12200
C1929       C  0.29871821  0.70539548  0.62222357    -0.26100
C1930       C  0.27424247  0.70057613  0.62811008     0.36300
C1931       C  0.24507767  0.76289730  0.62078227     0.05900
F1932       F  0.29450149  0.76976048  0.60532031    -0.19900
H1933       H  0.32357744  0.73321806  0.60950913     0.15800
F1934       F  0.26706156  0.67805048  0.63521192    -0.23600
H1935       H  0.23840301  0.71513667  0.63265529     0.17500
C1936       C  0.22138220  0.75975446  0.61164415     0.25500
C1937       C  0.20423567  0.77847202  0.61359770    -0.12100
C1938       C  0.21031094  0.80083324  0.62446476    -0.26200
C1939       C  0.23415501  0.80410703  0.63318530     0.36500
C1940       C  0.25117196  0.78528026  0.63151418    -0.27800
F1941       F  0.21484273  0.73873861  0.60048943    -0.19900
H1942       H  0.18611939  0.77540278  0.60653869     0.15800
F1943       F  0.24103710  0.82530483  0.64376365    -0.23600
H1944       H  0.26909897  0.78809177  0.63912552     0.17600
C1945       C  0.13892688  0.75696212  0.71435612    -0.27700
C1946       C  0.13060763  0.76335931  0.73762731     0.05900
C1947       C  0.12286029  0.78739316  0.74176922     0.25500
C1948       C  0.12376133  0.80461475  0.72303423    -0.12200
C1949       C  0.13240215  0.79829734  0.69978710    -0.26100
C1950       C  0.13978430  0.77410952  0.69561168     0.36300
C1951       C  0.13101910  0.74505560  0.75753719     0.05900
F1952       F  0.11423821  0.79421212  0.76386411    -0.19900
H1953       H  0.11787545  0.82301791  0.72684804     0.15800
F1954       F  0.14832033  0.76699288  0.67358496    -0.23600
H1955       H  0.14537554  0.73869843  0.71079305     0.17500
C1956       C  0.12195677  0.72141867  0.75385786     0.25500
C1957       C  0.12404223  0.70383377  0.77209769    -0.12100
C1958       C  0.13506230  0.70938996  0.79447670    -0.26200
C1959       C  0.14365400  0.73323340  0.79835745     0.36500
C1960       C  0.14167266  0.75077579  0.78002509    -0.27800
F1961       F  0.11091129  0.71532694  0.73265824    -0.19900
H1962       H  0.11706275  0.68575728  0.76859858     0.15800
F1963       F  0.15450339  0.73956173  0.81959355    -0.23600
H1964       H  0.14911237  0.76872756  0.78319507     0.17600
C1965       C  0.24551832  0.89142177  0.71771787    -0.27700
C1966       C  0.24465404  0.87575000  0.73787365     0.05900
C1967       C  0.22455624  0.86015229  0.74061314     0.25500
C1968       C  0.20592643  0.86010236  0.72335666    -0.12200
C1969       C  0.20707221  0.87534446  0.70289437    -0.26100
C1970       C  0.22697991  0.89121725  0.70032223     0.36300
C1971       C  0.26466182  0.87572024  0.75597369     0.05900
F1972       F  0.22333331  0.84431043  0.75951124    -0.19900
H1973       H  0.19090600  0.84756942  0.72564818     0.15800
F1974       F  0.22840667  0.90675473  0.68118846    -0.23600
H1975       H  0.26055726  0.90393466  0.71549619     0.17500
C1976       C  0.28910615  0.87382870  0.74865523     0.25500
C1977       C  0.30769178  0.87317498  0.76601434    -0.12100
C1978       C  0.30230513  0.87453018  0.79096379    -0.26200
C1979       C  0.27780863  0.87654556  0.79821329     0.36500
C1980       C  0.25929315  0.87721014  0.78086498    -0.27800
F1981       F  0.29498998  0.87187520  0.72476887    -0.19900
H1982       H  0.32633339  0.87148872  0.75990300     0.15800
F1983       F  0.27157282  0.87727196  0.82207914    -0.23600
H1984       H  0.24063358  0.87888358  0.78692463     0.17600
C1985       C  0.52924998  0.37945523  0.64543583    -0.27700
C1986       C  0.51568831  0.35859346  0.63970716     0.05900
C1987       C  0.52794885  0.33657827  0.63546842     0.25500
C1988       C  0.55322805  0.33543746  0.63733916    -0.12200
C1989       C  0.56683748  0.35615550  0.64357755    -0.26100
C1990       C  0.55458619  0.37832733  0.64736990     0.36300
C1991       C  0.48876185  0.35952823  0.63921310     0.05900
F1992       F  0.51541618  0.31591184  0.63048921    -0.19900
H1993       H  0.56210463  0.31809812  0.63441788     0.15800
F1994       F  0.56700388  0.39893445  0.65284860    -0.23600
H1995       H  0.52015744  0.39665616  0.64849921     0.17500
C1996       C  0.47575004  0.36855999  0.65923896     0.25500
C1997       C  0.45038162  0.36763560  0.65950318    -0.12100
C1998       C  0.43738643  0.35764700  0.63986385    -0.26200
C1999       C  0.45045662  0.34934381  0.61943507     0.36500
C2000       C  0.47588222  0.35028937  0.61920995    -0.27800
F2001       F  0.48758931  0.37720799  0.67908251    -0.19900
H2002       H  0.44094347  0.37419585  0.67548511     0.15800
F2003       F  0.43882352  0.33989374  0.59984738    -0.23600
H2004       H  0.48558652  0.34351516  0.60347126     0.17600
C2005       C  0.65770755  0.37177313  0.52188830    -0.27700
C2006       C  0.63764940  0.36098908  0.51045659     0.05900
C2007       C  0.61967124  0.34984396  0.52482969     0.25500
C2008       C  0.62217846  0.34907347  0.55015335    -0.12200
C2009       C  0.64270387  0.35924031  0.56157178    -0.26100
C2010       C  0.66028009  0.37099177  0.54709327     0.36300
C2011       C  0.63703344  0.35980424  0.48354950     0.05900
F2012       F  0.59982838  0.33954299  0.51439548    -0.19900
H2013       H  0.60829011  0.34000200  0.56076868     0.15800
F2014       F  0.68044334  0.38109552  0.55707209    -0.23600
H2015       H  0.67198183  0.38008198  0.51115807     0.17500
C2016       C  0.64162802  0.38061922  0.46939449     0.25500
C2017       C  0.64505964  0.37860250  0.44428768    -0.12100
C2018       C  0.64378222  0.35584372  0.43280428    -0.26200
C2019       C  0.63795487  0.33516691  0.44687339     0.36500
C2020       C  0.63468456  0.33721632  0.47197107    -0.27800
F2021       F  0.64322431  0.40286033  0.47995108    -0.19900
H2022       H  0.64907885  0.39483528  0.43387693     0.15800
F2023       F  0.63661258  0.31271780  0.43669320    -0.23600
H2024       H  0.63148368  0.32089711  0.48254142     0.17600
C2025       C  0.52945723  0.16797507  0.86017575    -0.27700
C2026       C  0.51777130  0.14599656  0.85469940     0.05900
C2027       C  0.53187516  0.12540464  0.84925834     0.25500
C2028       C  0.55726209  0.12700458  0.84880415    -0.12200
C2029       C  0.56903632  0.14917370  0.85370404    -0.26100
C2030       C  0.55478136  0.16965088  0.85971119     0.36300
C2031       C  0.49089716  0.14515563  0.85360727     0.05900
F2032       F  0.52107905  0.10375537  0.84441334    -0.19900
H2033       H  0.56769724  0.11093313  0.84426133     0.15800
F2034       F  0.56513226  0.19158690  0.86427127    -0.23600
H2035       H  0.51887722  0.18411718  0.86413794     0.17500
C2036       C  0.47677925  0.15323136  0.87328379     0.25500
C2037       C  0.45148622  0.15427376  0.87132604    -0.12100
C2038       C  0.43974565  0.14743740  0.84966801    -0.26200
C2039       C  0.45393396  0.13876012  0.83015024     0.36500
C2040       C  0.47924729  0.13763240  0.83220657    -0.27800
F2041       F  0.48748203  0.16021111  0.89438334    -0.19900
H2042       H  0.44111615  0.16087097  0.88670867     0.15800
F2043       F  0.44355096  0.13211915  0.80877862    -0.23600
H2044       H  0.48985981  0.13160963  0.81674698     0.17600
C2045       C  0.62753824  0.15504344  0.97050021    -0.27700
C2046       C  0.64776714  0.14748172  0.98405877     0.05900
C2047       C  0.66931526  0.14124126  0.97189937     0.25500
C2048       C  0.67075552  0.14319016  0.94661813    -0.12200
C2049       C  0.65073046  0.15135173  0.93294094    -0.26100
C2050       C  0.62887775  0.15685536  0.94516206     0.36300
C2051       C  0.64689550  0.14750585  0.01092290     0.05900
F2052       F  0.68931263  0.13428292  0.98458148    -0.19900
H2053       H  0.68780307  0.13878293  0.93780899     0.15800
F2054       F  0.60882887  0.16411915  0.93275112    -0.23600
H2055       H  0.61073011  0.15974673  0.97961973     0.17500
C2056       C  0.64223470  0.16917136  0.02357087     0.25500
C2057       C  0.64362963  0.16970150  0.04891015    -0.12100
C2058       C  0.64970052  0.14865248  0.06214077    -0.26200
C2059       C  0.65337061  0.12670422  0.04946006     0.36500
C2060       C  0.65209810  0.12624220  0.02405265    -0.27800
F2061       F  0.63753383  0.19010525  0.01134226    -0.19900
H2062       H  0.64071205  0.18686073  0.05811862     0.15800
F2063       F  0.65834706  0.10574542  0.06151988    -0.23600
H2064       H  0.65546254  0.10932479  0.01455057     0.17600
C2065       C  0.61373763  0.27792354  0.73396311    -0.27700
C2066       C  0.63090278  0.25904756  0.73447613     0.05900
C2067       C  0.64867628  0.25789276  0.71607990     0.25500
C2068       C  0.64934378  0.27556230  0.69778882    -0.12200
C2069       C  0.63261477  0.29484972  0.69778865    -0.26100
C2070       C  0.61465666  0.29577926  0.71595365     0.36300
C2071       C  0.63049212  0.24106042  0.75455161     0.05900
F2072       F  0.66598722  0.24029278  0.71633913    -0.19900
H2073       H  0.66344030  0.27461228  0.68406123     0.15800
F2074       F  0.59778966  0.31379792  0.71616450    -0.23600
H2075       H  0.59959492  0.27889163  0.74762900     0.17500
C2076       C  0.62918865  0.24873764  0.77892365     0.25500
C2077       C  0.62982503  0.23173079  0.79777218    -0.12100
C2078       C  0.63152700  0.20677691  0.79272440    -0.26200
C2079       C  0.63222317  0.19904007  0.76832245     0.36500
C2080       C  0.63174899  0.21607947  0.74947718    -0.27800
F2081       F  0.62815187  0.27273782  0.78458100    -0.19900
H2082       H  0.62920113  0.23812482  0.81638549     0.15800
F2083       F  0.63423365  0.17510473  0.76261930    -0.23600
H2084       H  0.63244755  0.20974474  0.73084885     0.17600
C2085       C  0.97798754  0.38092903  0.84650685    -0.27700
C2086       C  0.99057682  0.36111989  0.85666864     0.05900
C2087       C  0.97714267  0.34142653  0.86591766     0.25500
C2088       C  0.95179722  0.34119036  0.86403368    -0.12200
C2089       C  0.93924114  0.36046544  0.85278637    -0.26100
C2090       C  0.95264108  0.38063738  0.84444141     0.36300
C2091       C  0.01760521  0.36033465  0.85587802     0.05900
F2092       F  0.98853112  0.32176897  0.87557603    -0.19900
H2093       H  0.94206518  0.32542433  0.87071440     0.15800
F2094       F  0.94142385  0.39988422  0.83380302    -0.23600
H2095       H  0.98788626  0.39652613  0.83967675     0.17500
C2096       C  0.02991976  0.36549320  0.83408423     0.25500
C2097       C  0.05516923  0.36375659  0.83287487    -0.12100
C2098       C  0.06891089  0.35659609  0.85321422    -0.26200
C2099       C  0.05667431  0.35165257  0.87517944     0.36500
C2100       C  0.03126093  0.35359006  0.87644222    -0.27800
F2101       F  0.01749171  0.37126454  0.81355740    -0.19900
H2102       H  0.06392243  0.36751328  0.81563903     0.15800
F2103       F  0.06914705  0.34502609  0.89541215    -0.23600
H2104       H  0.02222282  0.34979371  0.89351913     0.17600
C2105       C  0.83290932  0.36384029  0.96932738    -0.27700
C2106       C  0.85505169  0.36542375  0.98187373     0.05900
C2107       C  0.87688154  0.36591866  0.96851467     0.25500
C2108       C  0.87646851  0.36454823  0.94310453    -0.12200
C2109       C  0.85430839  0.36291417  0.93057977    -0.26100
C2110       C  0.83246667  0.36261783  0.94395535     0.36300
C2111       C  0.85527408  0.36512546  0.00884960     0.05900
F2112       F  0.89859538  0.36790440  0.98004719    -0.19900
H2113       H  0.89348099  0.36484103  0.93319182     0.15800
F2114       F  0.81071151  0.36000300  0.93260405    -0.23600
H2115       H  0.81592557  0.36285715  0.97924896     0.17500
C2116       C  0.84067524  0.38112850  0.02246786     0.25500
C2117       C  0.84045814  0.37983552  0.04790953    -0.12100
C2118       C  0.85452739  0.36236903  0.06021529    -0.26200
C2119       C  0.86924931  0.34649796  0.04645958     0.36500
C2120       C  0.86958609  0.34796603  0.02112639    -0.27800
F2121       F  0.82670154  0.39805904  0.01117764    -0.19900
H2122       H  0.82887594  0.39219553  0.05794911     0.15800
F2123       F  0.88322162  0.32931817  0.05737152    -0.23600
H2124       H  0.88068487  0.33522947  0.01100432     0.17600
C2125       C  0.76264518  0.38944135  0.77338081    -0.27700
C2126       C  0.76483525  0.37462421  0.75277208     0.05900
C2127       C  0.78612303  0.36093648  0.74943259     0.25500
C2128       C  0.80485081  0.36197810  0.76661630    -0.12200
C2129       C  0.80268178  0.37667499  0.78743468    -0.26100
C2130       C  0.78134572  0.39056359  0.79055968     0.36300
C2131       C  0.74485619  0.37366944  0.73481417     0.05900
F2132       F  0.78845517  0.34599925  0.72993640    -0.19900
H2133       H  0.82084136  0.35082869  0.76387985     0.15800
F2134       F  0.77849015  0.40530277  0.81013854    -0.23600
H2135       H  0.74640562  0.40025333  0.77609587     0.17500
C2136       C  0.72178845  0.36502134  0.74146598     0.25500
C2137       C  0.70285022  0.36469320  0.72450335    -0.12100
C2138       C  0.70649001  0.37315298  0.70062045    -0.26200
C2139       C  0.72976587  0.38173692  0.69402644     0.36500
C2140       C  0.74870829  0.38186833  0.71099575    -0.27800
F2141       F  0.71772593  0.35647862  0.76426491    -0.19900
H2142       H  0.68531041  0.35771945  0.73010151     0.15800
F2143       F  0.73437477  0.38995699  0.67121552    -0.23600
H2144       H  0.76640110  0.38865258  0.70562605     0.17600
C2145       C  0.71966446  0.25297245  0.86659927    -0.27700
C2146       C  0.74446324  0.24776768  0.86387691     0.05900
C2147       C  0.75184123  0.22336477  0.86159905     0.25500
C2148       C  0.73458762  0.20462907  0.86187597    -0.12200
C2149       C  0.70970204  0.20981542  0.86471220    -0.26100
C2150       C  0.70243874  0.23430958  0.86707060     0.36300
C2151       C  0.76242908  0.26789938  0.86393745     0.05900
F2152       F  0.77567001  0.21767171  0.85862401    -0.19900
H2153       H  0.74073918  0.18602138  0.85990258     0.15800
F2154       F  0.67865647  0.24040421  0.86949740    -0.23600
H2155       H  0.71361705  0.27161017  0.86862765     0.17500
C2156       C  0.75968923  0.28808788  0.84842367     0.25500
C2157       C  0.77649786  0.30718766  0.84904821    -0.12100
C2158       C  0.79642842  0.30642542  0.86499366    -0.26200
C2159       C  0.79894335  0.28634639  0.88073272     0.36500
C2160       C  0.78210588  0.26732841  0.88013738    -0.27800
F2161       F  0.74118278  0.28897857  0.83213343    -0.19900
H2162       H  0.77429993  0.32225753  0.83654204     0.15800
F2163       F  0.81754860  0.28514470  0.89689648    -0.23600
H2164       H  0.78429782  0.25219300  0.89256020     0.17600
C2165       C  0.84841789  0.13581554  0.52160302    -0.27700
C2166       C  0.86750367  0.14794323  0.50975296     0.05900
C2167       C  0.88455263  0.16078709  0.52390147     0.25500
C2168       C  0.88183977  0.16221291  0.54918375    -0.12200
C2169       C  0.86218384  0.15080037  0.56092382    -0.26100
C2170       C  0.84585560  0.13697431  0.54683394     0.36300
C2171       C  0.86827063  0.14851270  0.48269178     0.05900
F2172       F  0.90376408  0.17209893  0.51331041    -0.19900
H2173       H  0.89488814  0.17272836  0.55950614     0.15800
F2174       F  0.82700640  0.12493178  0.55725496    -0.23600
H2175       H  0.83484380  0.12605460  0.51122963     0.17500
C2176       C  0.86372020  0.12747431  0.46880015     0.25500
C2177       C  0.86169940  0.12893337  0.44347111    -0.12100
C2178       C  0.86449968  0.15127969  0.43140510    -0.26200
C2179       C  0.87001924  0.17214905  0.44524779     0.36500
C2180       C  0.87166983  0.17072421  0.47054975    -0.27800
F2181       F  0.86116930  0.10547116  0.47969229    -0.19900
H2182       H  0.85776733  0.11254093  0.43330154     0.15800
F2183       F  0.87286978  0.19422301  0.43454590    -0.23600
H2184       H  0.87472144  0.18729364  0.48072870     0.17600
C2185       C  0.97772650  0.16879951  0.63892496    -0.27700
C2186       C  0.98837427  0.14567387  0.63726725     0.05900
C2187       C  0.97337503  0.12498027  0.63816804     0.25500
C2188       C  0.94815993  0.12753691  0.64075302    -0.12200
C2189       C  0.93753043  0.15073318  0.64235899    -0.26100
C2190       C  0.95262407  0.17138881  0.64142250     0.36300
C2191       C  0.01521515  0.14365313  0.63599706     0.05900
F2192       F  0.98306156  0.10236511  0.63622154    -0.19900
H2193       H  0.93691417  0.11138077  0.64131030     0.15800
F2194       F  0.94327733  0.19411983  0.64378426    -0.23600
H2195       H  0.98899428  0.18495577  0.63885047     0.17500
C2196       C  0.02847945  0.15721503  0.61885919     0.25500
C2197       C  0.05382503  0.15829016  0.62018573    -0.12100
C2198       C  0.06645235  0.14602405  0.63872337    -0.26200
C2199       C  0.05321235  0.13119288  0.65494354     0.36500
C2200       C  0.02784122  0.13008229  0.65352983    -0.27800
F2201       F  0.01684746  0.16995757  0.60120522    -0.19900
H2202       H  0.06347559  0.16957387  0.60724551     0.15800
F2203       F  0.06462097  0.11831051  0.67264199    -0.23600
H2204       H  0.01796788  0.11951075  0.66690239     0.17600
C2205       C  0.75527414  0.22269517  0.62544941    -0.27700
C2206       C  0.76223796  0.24655081  0.61972522     0.05900
C2207       C  0.78670892  0.25151150  0.61446605     0.25500
C2208       C  0.80397715  0.23291961  0.61537937    -0.12200
C2209       C  0.79719101  0.20906262  0.62166225    -0.26100
C2210       C  0.77250544  0.20407060  0.62642541     0.36300
C2211       C  0.74402665  0.26628296  0.62008928     0.05900
F2212       F  0.79387405  0.27433272  0.60834914    -0.19900
H2213       H  0.82277111  0.23733679  0.61152938     0.15800
F2214       F  0.76496118  0.18134178  0.63241525    -0.23600
H2215       H  0.73649346  0.21859138  0.62972421     0.17500
C2216       C  0.72243561  0.26438123  0.60661432     0.25500
C2217       C  0.70497289  0.28276200  0.60784560    -0.12100
C2218       C  0.70872670  0.30332348  0.62252934    -0.26200
C2219       C  0.73044653  0.30525091  0.63593111     0.36500
C2220       C  0.74790395  0.28686477  0.63464055    -0.27800
F2221       F  0.71833447  0.24483868  0.59212335    -0.19900
H2222       H  0.68842514  0.28084543  0.59735567     0.15800
F2223       F  0.73444442  0.32436339  0.65102650    -0.23600
H2224       H  0.76426257  0.28840683  0.64548990     0.17600
C2225       C  0.76031412  0.11959339  0.71501424    -0.27700
C2226       C  0.76161219  0.13413920  0.73591475     0.05900
C2227       C  0.78154930  0.14980048  0.73899773     0.25500
C2228       C  0.79990262  0.15078377  0.72146413    -0.12200
C2229       C  0.79868249  0.13624744  0.70050040    -0.26100
C2230       C  0.77866702  0.12056784  0.69742654     0.36300
C2231       C  0.74233910  0.13277165  0.75462754     0.05900
F2232       F  0.78297654  0.16454819  0.75872696    -0.19900
H2233       H  0.81494393  0.16320784  0.72413922     0.15800
F2234       F  0.77707676  0.10576980  0.67775041    -0.23600
H2235       H  0.74519721  0.10723423  0.71248985     0.17500
C2236       C  0.71797481  0.13766128  0.74877439     0.25500
C2237       C  0.70013909  0.13733974  0.76691742    -0.12100
C2238       C  0.70625393  0.13201590  0.79119852    -0.26200
C2239       C  0.73068090  0.12659736  0.79683393     0.36500
C2240       C  0.74845049  0.12705004  0.77869587    -0.27800
F2241       F  0.71159988  0.14366147  0.72569871    -0.19900
H2242       H  0.68158814  0.14173006  0.76199635     0.15800
F2243       F  0.73762596  0.12131663  0.81991633    -0.23600
H2244       H  0.76713279  0.12304765  0.78347129     0.17600
C2245       C  0.89180194  0.22735679  0.73622738    -0.27700
C2246       C  0.87347212  0.24499482  0.73841304     0.05900
C2247       C  0.85449365  0.24539037  0.72122450     0.25500
C2248       C  0.85427731  0.22887010  0.70195197    -0.12200
C2249       C  0.87258853  0.21127392  0.69979589    -0.26100
C2250       C  0.89127420  0.21046547  0.71723624     0.36300
C2251       C  0.87452412  0.26350332  0.75799795     0.05900
F2252       F  0.83583421  0.26140799  0.72338664    -0.19900
H2253       H  0.83942831  0.22942220  0.68902911     0.15800
F2254       F  0.90933657  0.19372303  0.71558770    -0.23600
H2255       H  0.90674934  0.22688640  0.74902183     0.17500
C2256       C  0.87839862  0.25701004  0.78248277     0.25500
C2257       C  0.87806536  0.27484705  0.80067247    -0.12100
C2258       C  0.87436720  0.29938528  0.79465164    -0.26200
C2259       C  0.87103721  0.30584851  0.77012172     0.36500
C2260       C  0.87119266  0.28809252  0.75208422    -0.27800
F2261       F  0.88180821  0.23342125  0.78890713    -0.19900
H2262       H  0.88074056  0.26951101  0.81944189     0.15800
F2263       F  0.86676846  0.32927146  0.76357167    -0.23600
H2264       H  0.86858181  0.29359831  0.73335417     0.17600
C2265       C  0.53315040  0.66749129  0.62345643    -0.27700
C2266       C  0.52015457  0.64979312  0.63658696     0.05900
C2267       C  0.53325738  0.63231997  0.64993694     0.25500
C2268       C  0.55865507  0.63337923  0.65108459    -0.12200
C2269       C  0.57160331  0.65163235  0.63872583    -0.26100
C2270       C  0.55858851  0.66840488  0.62439045     0.36300
C2271       C  0.49306775  0.65045235  0.63735805     0.05900
F2272       F  0.52149422  0.61490283  0.66287092    -0.19900
H2273       H  0.56821265  0.62009885  0.66205819     0.15800
F2274       F  0.57028693  0.68639263  0.61218005    -0.23600
H2275       H  0.52352586  0.68091928  0.61273036     0.17500
C2276       C  0.48075180  0.67224996  0.64273084     0.25500
C2277       C  0.45536094  0.67273540  0.64400111    -0.12100
C2278       C  0.44167172  0.65147555  0.64045200    -0.26200
C2279       C  0.45387634  0.62964135  0.63519002     0.36500
C2280       C  0.47932176  0.62922072  0.63347232    -0.27800
F2281       F  0.49328980  0.69292595  0.64767250    -0.19900
H2282       H  0.44637073  0.68969918  0.64842909     0.15800
F2283       F  0.44119449  0.60886611  0.63117335    -0.23600
H2284       H  0.48831357  0.61227567  0.62903587     0.17600
C2285       C  0.66095257  0.52748554  0.62829580    -0.27700
C2286       C  0.64054939  0.51640856  0.63885356     0.05900
C2287       C  0.62270925  0.53114479  0.64971227     0.25500
C2288       C  0.62573721  0.55643062  0.65064548    -0.12200
C2289       C  0.64666085  0.56751191  0.64089895    -0.26100
C2290       C  0.66406228  0.55269042  0.62924984     0.36300
C2291       C  0.63921318  0.48946941  0.64004789     0.05900
F2292       F  0.60244564  0.52106797  0.65955187    -0.19900
H2293       H  0.61190451  0.56728322  0.65951024     0.15800
F2294       F  0.68451909  0.56232842  0.61937572    -0.23600
H2295       H  0.67503350  0.51646416  0.62003676     0.17500
C2296       C  0.64261595  0.47520381  0.61911910     0.25500
C2297       C  0.64466521  0.44990892  0.62099504    -0.12100
C2298       C  0.64327940  0.43830684  0.64374132    -0.26200
C2299       C  0.63882397  0.45256332  0.66457864     0.36500
C2300       C  0.63684853  0.47786205  0.66266084    -0.27800
F2301       F  0.64422635  0.48577949  0.59687685    -0.19900
H2302       H  0.64772037  0.43941399  0.60461963     0.15800
F2303       F  0.63753084  0.44229146  0.68699004    -0.23600
H2304       H  0.63450763  0.48851783  0.67905373     0.17600
C2305       C  0.65634879  0.62650362  0.52305800    -0.27700
C2306       C  0.64978146  0.64718019  0.50957766     0.05900
C2307       C  0.64380193  0.66869273  0.52203690     0.25500
C2308       C  0.64518600  0.66960708  0.54740413    -0.12200
C2309       C  0.65256876  0.64914839  0.56091453    -0.26100
C2310       C  0.65776311  0.62739167  0.54842766     0.36300
C2311       C  0.65027963  0.64650878  0.48259355     0.05900
F2312       F  0.63765640  0.68916287  0.50966418    -0.19900
H2313       H  0.64102936  0.68660983  0.55642363     0.15800
F2314       F  0.66444426  0.60698678  0.56060507    -0.23600
H2315       H  0.66061007  0.60962137  0.51386332     0.17500
C2316       C  0.67092540  0.63790096  0.47021599     0.25500
C2317       C  0.67186950  0.63849566  0.44484860    -0.12100
C2318       C  0.65234166  0.64777471  0.43120155    -0.26200
C2319       C  0.63138609  0.65580941  0.44360303     0.36500
C2320       C  0.63045211  0.65514984  0.46902629    -0.27800
F2321       F  0.69067033  0.62989256  0.48266679    -0.19900
H2322       H  0.68826781  0.63224198  0.43592537     0.15800
F2323       F  0.61190707  0.66465424  0.43130288    -0.23600
H2324       H  0.61423072  0.66154987  0.47816838     0.17600
C2325       C  0.84891024  0.53157847  0.86256549    -0.27700
C2326       C  0.86891134  0.51991153  0.85185411     0.05900
C2327       C  0.88700542  0.53414143  0.84069928     0.25500
C2328       C  0.88480461  0.55950155  0.84002363    -0.12200
C2329       C  0.86447735  0.57117570  0.85028701    -0.26100
C2330       C  0.84664237  0.55685485  0.86187514     0.36300
C2331       C  0.86961066  0.49292787  0.85106278     0.05900
F2332       F  0.90677244  0.52355347  0.83040199    -0.19900
H2333       H  0.89885091  0.56996681  0.83102745     0.15800
F2334       F  0.82659280  0.56706946  0.87200592    -0.23600
H2335       H  0.83451297  0.52099898  0.87085609     0.17500
C2336       C  0.86465556  0.47903324  0.87197667     0.25500
C2337       C  0.86158922  0.45383555  0.87028993    -0.12100
C2338       C  0.86376992  0.44194294  0.84780869    -0.26200
C2339       C  0.87029500  0.45571324  0.82714171     0.36500
C2340       C  0.87296439  0.48093669  0.82880478    -0.27800
F2341       F  0.86250074  0.48989691  0.89401805    -0.19900
H2342       H  0.85720459  0.44365526  0.88657217     0.15800
F2343       F  0.87302922  0.44507832  0.80503958    -0.23600
H2344       H  0.87663375  0.49122979  0.81241286     0.17600
C2345       C  0.98048120  0.65377468  0.86988936    -0.27700
C2346       C  0.99382334  0.64905610  0.84865566     0.05900
C2347       C  0.98132645  0.64574603  0.82662201     0.25500
C2348       C  0.95595684  0.64740535  0.82593517    -0.12200
C2349       C  0.94256045  0.65254632  0.84713645    -0.26100
C2350       C  0.95514409  0.65559518  0.86920921     0.36300
C2351       C  0.02075521  0.64859439  0.84952140     0.05900
F2352       F  0.99368598  0.64186667  0.80560816    -0.19900
H2353       H  0.94683194  0.64519312  0.80863036     0.15800
F2354       F  0.94304828  0.66027977  0.89019095    -0.23600
H2355       H  0.98977016  0.65616644  0.88708147     0.17500
C2356       C  0.03363995  0.66826207  0.85946952     0.25500
C2357       C  0.05900929  0.66820462  0.85963396    -0.12100
C2358       C  0.07215654  0.64858674  0.84984063    -0.26200
C2359       C  0.05920402  0.62855124  0.84042339     0.36500
C2360       C  0.03374515  0.62868325  0.84021424    -0.27800
F2361       F  0.02168849  0.68802894  0.86815792    -0.19900
H2362       H  0.06835774  0.68392439  0.86691332     0.15800
F2363       F  0.07101305  0.60899563  0.83107325    -0.23600
H2364       H  0.02412493  0.61321872  0.83273207     0.17600
C2365       C  0.86941417  0.63020870  0.96827949    -0.27700
C2366       C  0.86635632  0.65141152  0.98225043     0.05900
C2367       C  0.86252709  0.67368015  0.97018166     0.25500
C2368       C  0.86154534  0.67457082  0.94480500    -0.12200
C2369       C  0.86390419  0.65329981  0.93088856    -0.26100
C2370       C  0.86808236  0.63107613  0.94283265     0.36300
C2371       C  0.86660765  0.65031634  0.00930333     0.05900
F2372       F  0.85868877  0.69446456  0.98292977    -0.19900
H2373       H  0.85808067  0.69187212  0.93602077     0.15800
F2374       F  0.87124718  0.61030020  0.92991083    -0.23600
H2375       H  0.87282765  0.61293201  0.97710344     0.17500
C2376       C  0.85212270  0.63345972  0.02202263     0.25500
C2377       C  0.85093489  0.63407724  0.04746503    -0.12100
C2378       C  0.86430951  0.65132442  0.06076358    -0.26200
C2379       C  0.87947222  0.66760049  0.04802672     0.36500
C2380       C  0.88054559  0.66703617  0.02263344    -0.27800
F2381       F  0.83824063  0.61710879  0.00984454    -0.19900
H2382       H  0.83917529  0.62129447  0.05675640     0.15800
F2383       F  0.89252259  0.68480280  0.05996129    -0.23600
H2384       H  0.89208301  0.67998931  0.01330241     0.17600
C2385       C  0.75332051  0.62743178  0.71323247    -0.27700
C2386       C  0.74603694  0.62837632  0.73773976     0.05900
C2387       C  0.72099711  0.62879450  0.74306173     0.25500
C2388       C  0.70382539  0.62895946  0.72432927    -0.12200
C2389       C  0.71110445  0.62860506  0.69984392    -0.26100
C2390       C  0.73611450  0.62736682  0.69446872     0.36300
C2391       C  0.76450524  0.62958345  0.75756293     0.05900
F2392       F  0.71302768  0.62888410  0.76641195    -0.19900
H2393       H  0.68473335  0.62985443  0.72905677     0.15800
F2394       F  0.74401827  0.62615052  0.67111848    -0.23600
H2395       H  0.77242700  0.62730940  0.70851319     0.17500
C2396       C  0.78524423  0.61455102  0.75735096     0.25500
C2397       C  0.80269927  0.61643582  0.77574672    -0.12100
C2398       C  0.79974082  0.63299447  0.79497152    -0.26200
C2399       C  0.77888250  0.64778461  0.79542673     0.36500
C2400       C  0.76165160  0.64623353  0.77678083    -0.27800
F2401       F  0.78850676  0.59771373  0.73961724    -0.19900
H2402       H  0.81854810  0.60476321  0.77502242     0.15800
F2403       F  0.77554800  0.66441143  0.81335455    -0.23600
H2404       H  0.74623524  0.65847152  0.77715433     0.17600
C2405       C  0.48121646  0.84306962  0.86026527    -0.27700
C2406       C  0.49258380  0.86520433  0.85479749     0.05900
C2407       C  0.47823681  0.88516085  0.84772680     0.25500
C2408       C  0.45297037  0.88266127  0.84554897    -0.12200
C2409       C  0.44161077  0.86022870  0.85034959    -0.26100
C2410       C  0.45607944  0.84050617  0.85810592     0.36300
C2411       C  0.51949023  0.86634874  0.85454223     0.05900
F2412       F  0.48866486  0.90700806  0.84291223    -0.19900
H2413       H  0.44233064  0.89823003  0.83985483     0.15800
F2414       F  0.44617592  0.81840551  0.86287034    -0.23600
H2415       H  0.49198503  0.82739784  0.86543251     0.17500
C2416       C  0.53314701  0.85889838  0.87482151     0.25500
C2417       C  0.55843264  0.85659120  0.87314366    -0.12100
C2418       C  0.57057990  0.86162957  0.85121200    -0.26200
C2419       C  0.55685916  0.86988013  0.83114657     0.36500
C2420       C  0.53161753  0.87224781  0.83291448    -0.27800
F2421       F  0.52195313  0.85352939  0.89615116    -0.19900
H2422       H  0.56846753  0.85048281  0.88894579     0.15800
F2423       F  0.56757533  0.87465044  0.80942963    -0.23600
H2424       H  0.52137649  0.87765113  0.81697949     0.17600
C2425       C  0.67280073  0.97951931  0.85637944    -0.27700
C2426       C  0.65021581  0.99095505  0.85974434     0.05900
C2427       C  0.62903645  0.97653272  0.86004451     0.25500
C2428       C  0.63055312  0.95130303  0.85678109    -0.12200
C2429       C  0.65318020  0.93995452  0.85354433    -0.26100
C2430       C  0.67434594  0.95433250  0.85342949     0.36300
C2431       C  0.64896231  0.01796827  0.86106690     0.05900
F2432       F  0.60690201  0.98677134  0.86377858    -0.19900
H2433       H  0.61404601  0.94057358  0.85709044     0.15800
F2434       F  0.69650117  0.94418433  0.84949106    -0.23600
H2435       H  0.68930670  0.99020240  0.85534826     0.17500
C2436       C  0.66528628  0.03136680  0.87556514     0.25500
C2437       C  0.66602235  0.05679285  0.87402153    -0.12100
C2438       C  0.65050554  0.06933765  0.85805191    -0.26200
C2439       C  0.63310965  0.05599909  0.84480877     0.36500
C2440       C  0.63253396  0.03064074  0.84620287    -0.27800
F2441       F  0.68078272  0.01986491  0.89095350    -0.19900
H2442       H  0.67935211  0.06658649  0.88469396     0.15800
F2443       F  0.61691212  0.06737213  0.83005956    -0.23600
H2444       H  0.61982004  0.02085409  0.83481117     0.17600
C2445       C  0.65529721  0.88085245  0.97134621    -0.27700
C2446       C  0.64576848  0.86115859  0.98449023     0.05900
C2447       C  0.63646052  0.84107857  0.97173445     0.25500
C2448       C  0.63769157  0.84036818  0.94634152    -0.12200
C2449       C  0.64824208  0.85961687  0.93314112    -0.26100
C2450       C  0.65653887  0.88018998  0.94596666     0.36300
C2451       C  0.64695904  0.86106167  0.01142270     0.05900
F2452       F  0.62737406  0.82157628  0.98385438    -0.19900
H2453       H  0.63107076  0.82431159  0.93707443     0.15800
F2454       F  0.66645066  0.89945676  0.93415205    -0.23600
H2455       H  0.66222508  0.89665139  0.98083651     0.17500
C2456       C  0.66917632  0.86521052  0.02333834     0.25500
C2457       C  0.67056513  0.86405308  0.04865215    -0.12100
C2458       C  0.64991153  0.85855629  0.06265135    -0.26200
C2459       C  0.62752372  0.85490559  0.05074126     0.36500
C2460       C  0.62614677  0.85613708  0.02535834    -0.27800
F2461       F  0.68980598  0.86935087  0.01044114    -0.19900
H2462       H  0.68806430  0.86677495  0.05724764     0.15800
F2463       F  0.60697257  0.85009160  0.06353239    -0.23600
H2464       H  0.60880364  0.85316466  0.01653532     0.17600
C2465       C  0.64388663  0.78839846  0.74927424    -0.27700
C2466       C  0.63552527  0.76499452  0.75527643     0.05900
C2467       C  0.62715667  0.76066139  0.77905543     0.25500
C2468       C  0.62744122  0.77923656  0.79641387    -0.12200
C2469       C  0.63599118  0.80263099  0.79055108    -0.26100
C2470       C  0.64410986  0.80705489  0.76661905     0.36300
C2471       C  0.63591157  0.74510828  0.73689146     0.05900
F2472       F  0.61832699  0.73851935  0.78546383    -0.19900
H2473       H  0.62102050  0.77518746  0.81458280     0.15800
F2474       F  0.65261846  0.82925031  0.75995462    -0.23600
H2475       H  0.65071052  0.79215407  0.73118658     0.17500
C2476       C  0.62659629  0.74870375  0.71334211     0.25500
C2477       C  0.62714291  0.72984429  0.69627648    -0.12100
C2478       C  0.63690243  0.70693850  0.70224334    -0.26200
C2479       C  0.64619312  0.70334608  0.72584696     0.36500
C2480       C  0.64574071  0.72226688  0.74286039    -0.27800
F2481       F  0.61649365  0.77029763  0.70692966    -0.19900
H2482       H  0.61983598  0.73322417  0.67830834     0.15800
F2483       F  0.65616300  0.68174821  0.73245402    -0.23600
H2484       H  0.65342823  0.71913968  0.76071335     0.17600
C2485       C  0.74806945  0.78531008  0.88315901    -0.27700
C2486       C  0.74675393  0.76480314  0.86804325     0.05900
C2487       C  0.72591733  0.76131373  0.85364549     0.25500
C2488       C  0.70678152  0.77798497  0.85448377    -0.12200
C2489       C  0.70811759  0.79862280  0.86943904    -0.26100
C2490       C  0.72901808  0.80214043  0.88385270     0.36300
C2491       C  0.76679113  0.74676953  0.86777604     0.05900
F2492       F  0.72436216  0.74214225  0.83819511    -0.19900
H2493       H  0.69115134  0.77505476  0.84287731     0.15800
F2494       F  0.73104669  0.82170969  0.89875034    -0.23600
H2495       H  0.76380228  0.78817304  0.89464122     0.17500
C2496       C  0.79108922  0.75393572  0.86426507     0.25500
C2497       C  0.80962988  0.73650393  0.86370149    -0.12100
C2498       C  0.80432265  0.71166619  0.86677436    -0.26200
C2499       C  0.77996503  0.70461290  0.87041653     0.36500
C2500       C  0.76151376  0.72202080  0.87095780    -0.27800
F2501       F  0.79682705  0.77767966  0.86068667    -0.19900
H2502       H  0.82815763  0.74246068  0.86072111     0.15800
F2503       F  0.77376202  0.68085293  0.87290410    -0.23600
H2504       H  0.74295911  0.71612495  0.87390732     0.17600
C2505       C  0.84292221  0.87578698  0.52231875    -0.27700
C2506       C  0.86002491  0.86156589  0.50976524     0.05900
C2507       C  0.87660913  0.84742020  0.52312838     0.25500
C2508       C  0.87553394  0.84704368  0.54850645    -0.12200
C2509       C  0.85796779  0.86074283  0.56105459    -0.26100
C2510       C  0.84175687  0.87533602  0.54767762     0.36300
C2511       C  0.85962544  0.86072811  0.48282704     0.05900
F2512       F  0.89312498  0.83309892  0.51167298    -0.19900
H2513       H  0.88821532  0.83562684  0.55834999     0.15800
F2514       F  0.82407254  0.88834329  0.55894621    -0.23600
H2515       H  0.83012980  0.88701562  0.51240859     0.17500
C2516       C  0.83760539  0.85693942  0.47040114     0.25500
C2517       C  0.83718678  0.85617259  0.44508422    -0.12100
C2518       C  0.85871656  0.85854818  0.43164453    -0.26200
C2519       C  0.88082217  0.86209196  0.44393931     0.36500
C2520       C  0.88118891  0.86339892  0.46934957    -0.27800
F2521       F  0.81658293  0.85308753  0.48274164    -0.19900
H2522       H  0.82003282  0.85296531  0.43596029     0.15800
F2523       F  0.90192237  0.86474099  0.43141505    -0.23600
H2524       H  0.89831065  0.86659893  0.47851252     0.17600
C2525       C  0.97875744  0.87960386  0.65513691    -0.27700
C2526       C  0.99147111  0.86663200  0.63721170     0.05900
C2527       C  0.97821579  0.85394236  0.61938724     0.25500
C2528       C  0.95286507  0.85301418  0.62048072    -0.12200
C2529       C  0.94019403  0.86482537  0.63924803    -0.26100
C2530       C  0.95338848  0.87894569  0.65607226     0.36300
C2531       C  0.01837344  0.86480086  0.63831402     0.05900
F2532       F  0.98980332  0.84205685  0.60112756    -0.19900
H2533       H  0.94322260  0.84233945  0.60704501     0.15800
F2534       F  0.94191880  0.89158277  0.67389941    -0.23600
H2535       H  0.98849190  0.88947686  0.66910137     0.17500
C2536       C  0.03306607  0.88536625  0.64233137     0.25500
C2537       C  0.05831183  0.88288124  0.64435296    -0.12100
C2538       C  0.06937251  0.85992900  0.64223223    -0.26200
C2539       C  0.05462153  0.83940602  0.63817776     0.36500
C2540       C  0.02945771  0.84188217  0.63640713    -0.27800
F2541       F  0.02309044  0.90788229  0.64398773    -0.19900
H2542       H  0.06923539  0.89896600  0.64746339     0.15800
F2543       F  0.06434327  0.81675984  0.63671271    -0.23600
H2544       H  0.01852708  0.82567390  0.63405305     0.17600
C2545       C  0.87723357  0.97975771  0.64577571    -0.27700
C2546       C  0.85558368  0.99261411  0.64176138     0.05900
C2547       C  0.83400892  0.97969102  0.63743028     0.25500
C2548       C  0.83407923  0.95428639  0.63754456    -0.12200
C2549       C  0.85564444  0.94128958  0.64199503    -0.26100
C2550       C  0.87737605  0.95433329  0.64579291     0.36300
C2551       C  0.85558108  0.01948697  0.64213374     0.05900
F2552       F  0.81270600  0.99165483  0.63393659    -0.19900
H2553       H  0.81706239  0.94479436  0.63475303     0.15800
F2554       F  0.89877922  0.94261541  0.64949769    -0.23600
H2555       H  0.89408750  0.98947387  0.64881976     0.17500
C2556       C  0.86377314  0.03221703  0.66267170     0.25500
C2557       C  0.86338786  0.05760856  0.66292712    -0.12100
C2558       C  0.85481731  0.07081120  0.64273792    -0.26200
C2559       C  0.84672158  0.05794679  0.62212002     0.36500
C2560       C  0.84712525  0.03253321  0.62191789    -0.27800
F2561       F  0.87141373  0.02008648  0.68277365    -0.19900
H2562       H  0.86947776  0.06691735  0.67916665     0.15800
F2563       F  0.83819655  0.06978924  0.60221663    -0.23600
H2564       H  0.84084601  0.02296519  0.60590066     0.17600
C2565       C  0.76647843  0.78124342  0.61143233    -0.27700
C2566       C  0.77039693  0.75931249  0.62391342     0.05900
C2567       C  0.79264672  0.75570786  0.63596812     0.25500
C2568       C  0.81016318  0.77414394  0.63627663    -0.12200
C2569       C  0.80582177  0.79651973  0.62465499    -0.26100
C2570       C  0.78391017  0.79970420  0.61178378     0.36300
C2571       C  0.75076882  0.74085103  0.62509417     0.05900
F2572       F  0.79700577  0.73484023  0.64841801    -0.19900
H2573       H  0.82684769  0.77115316  0.64629460     0.15800
F2574       F  0.77917097  0.82066644  0.59962443    -0.23600
H2575       H  0.74968260  0.78419070  0.60158488     0.17500
C2576       C  0.72715180  0.74760102  0.63214891     0.25500
C2577       C  0.70858786  0.73032651  0.63305717    -0.12100
C2578       C  0.71309338  0.70589292  0.62704173    -0.26200
C2579       C  0.73689651  0.69904144  0.62035773     0.36500
C2580       C  0.75546555  0.71642567  0.61933683    -0.27800
F2581       F  0.72212447  0.77085240  0.63873752    -0.19900
H2582       H  0.69061454  0.73615863  0.63858999     0.15800
F2583       F  0.74237090  0.67559347  0.61493389    -0.23600
H2584       H  0.77352658  0.71083233  0.61383807     0.17600
C2585       C  0.87483553  0.79119887  0.74404779    -0.27700
C2586       C  0.87865874  0.76705163  0.73683991     0.05900
C2587       C  0.88327294  0.76185400  0.71231939     0.25500
C2588       C  0.88351315  0.78054321  0.69514851    -0.12200
C2589       C  0.87895216  0.80472525  0.70210620    -0.26100
C2590       C  0.87488509  0.80993986  0.72687872     0.36300
C2591       C  0.87758666  0.74727847  0.75490232     0.05900
F2592       F  0.88764150  0.73868175  0.70503397    -0.19900
H2593       H  0.88672954  0.77595284  0.67627649     0.15800
F2594       F  0.87069058  0.83302361  0.73455206    -0.23600
H2595       H  0.87132571  0.79545118  0.76295611     0.17500
C2596       C  0.89373525  0.74690010  0.77461432     0.25500
C2597       C  0.89274636  0.72799782  0.79150528    -0.12100
C2598       C  0.87562097  0.70920643  0.78904585    -0.26200
C2599       C  0.85923854  0.70974778  0.76940799     0.36500
C2600       C  0.86033895  0.72864288  0.75242957    -0.27800
F2601       F  0.91075596  0.76456598  0.77724302    -0.19900
H2602       H  0.90552378  0.72798162  0.80648524     0.15800
F2603       F  0.84169782  0.69254401  0.76705451    -0.23600
H2604       H  0.84752640  0.72893966  0.73747737     0.17600
C2605       C  0.78824777  0.88492666  0.74182981    -0.27700
C2606       C  0.76658188  0.87175399  0.73940814     0.05900
C2607       C  0.76183567  0.85943038  0.71755529     0.25500
C2608       C  0.77856298  0.86030366  0.69845669    -0.12200
C2609       C  0.80031549  0.87351224  0.70075923    -0.26100
C2610       C  0.80497261  0.88592354  0.72271469     0.36300
C2611       C  0.74841831  0.87195381  0.75921348     0.05900
F2612       F  0.74117856  0.84621125  0.71485641    -0.19900
H2613       H  0.77458311  0.85036308  0.68193689     0.15800
F2614       F  0.82550328  0.89927358  0.72571050    -0.23600
H2615       H  0.79200230  0.89482180  0.75843360     0.17500
C2616       C  0.75427159  0.86385269  0.78273265     0.25500
C2617       C  0.73672198  0.86436004  0.80118599    -0.12100
C2618       C  0.71312630  0.87310672  0.79650607    -0.26200
C2619       C  0.70748263  0.88129720  0.77285382     0.36500
C2620       C  0.72497009  0.88065289  0.75451146    -0.27800
F2621       F  0.77673671  0.85490262  0.78766222    -0.19900
H2622       H  0.74155721  0.85769532  0.81907769     0.15800
F2623       F  0.68502136  0.88981263  0.76722292    -0.23600
H2624       H  0.72023078  0.88714072  0.73652299     0.17600
loop_ 
_geom_bond_atom_site_label_1 
_geom_bond_atom_site_label_2 
_geom_bond_distance 
_geom_bond_site_symmetry_2 
_ccdc_geom_bond_type 
O1           C16   1.262       .  A
O1           Al9   1.895       .  S
C2           O12   1.259       .  A
C2            O3   1.264       .  A
C2         C2589   1.480       .  S
O3           Al5   1.917       .  S
O4            C6   1.259       .  A
O4           Al5   1.893       .  S
Al5          O13   1.895       .  S
Al5          O15   1.912       .  S
Al5          O14   1.781       .  S
C6           O19   1.262       .  A
C6         C2569   1.482       .  S
O7           C17   1.261       .  A
O7           Al9   1.896       .  S
O8           C21   1.260       .  A
O8          Al18   1.889       .  S
Al9          O22   1.925       .  S
Al9          O19   1.918       .  S
Al9          O14   1.781       .  S
O10          C17   1.262       .  A
O10         Al18   1.916       .  S
O11          C20   1.262       .  A
O11         Al18   1.909       .  S
O12         Al18   1.885       .  S
O13          C20   1.260       .  A
O14         Al18   1.782       .  S
O15          C16   1.264       .  A
C16        C2509   1.479       .  S
C17        C2609   1.482       .  S
C20        C2529   1.482       .  S
C21          O22   1.266       .  A
C21        C2549   1.482       .  S
O23          C38   1.264       .  A
O23         Al31   1.899       .  S
C24          O34   1.260       .  A
C24          O25   1.264       .  A
C24        C2469   1.489       .  S
O25         Al27   1.921       .  S
O26          C28   1.260       .  A
O26         Al27   1.899       .  S
Al27         O35   1.903       .  S
Al27         O37   1.924       .  S
Al27         O36   1.779       .  S
C28          O41   1.260       .  A
C28        C2489   1.480       .  S
O29          C39   1.262       .  A
O29         Al31   1.900       .  S
O30          C43   1.262       .  A
O30         Al40   1.907       .  S
Al31         O44   1.915       .  S
Al31         O41   1.911       .  S
Al31         O36   1.784       .  S
O32          C39   1.264       .  A
O32         Al40   1.914       .  S
O33          C42   1.263       .  A
O33         Al40   1.912       .  S
O34         Al40   1.899       .  S
O35          C42   1.263       .  A
O36         Al40   1.779       .  S
O37          C38   1.267       .  A
C38        C2449   1.487       .  S
C39        C2618   1.484       .  S
C42        C2418   1.486       .  S
C43          O44   1.262       .  A
C43        C2429   1.480       .  S
O45          C60   1.262       .  A
O45         Al53   1.908       .  S
C46          O56   1.260       .  A
C46          O47   1.262       .  A
C46        C2598   1.474       .  S
O47         Al49   1.912       .  S
O48          C50   1.261       .  A
O48         Al49   1.895       .  S
Al49         O57   1.900       .  S
Al49         O59   1.917       .  S
Al49         O58   1.781       .  S
C50          O63   1.264       .  A
C50        C2498   1.482       .  S
O51          C61   1.260       .  A
O51         Al53   1.903       .  S
O52          C65   1.263       .  A
O52         Al62   1.897       .  S
Al53         O66   1.919       .  S
Al53         O63   1.918       .  S
Al53         O58   1.776       .  S
O54          C61   1.262       .  A
O54         Al62   1.916       .  S
O55          C64   1.265       .  A
O55         Al62   1.922       .  S
O56         Al62   1.897       .  S
O57          C64   1.263       .  A
O58         Al62   1.781       .  S
O59          C60   1.263       .  A
C60        C2369   1.480       .  S
C61        C2398   1.482       .  S
C64        C2349   1.484       .  S
C65          O66   1.265       .  A
C65        C2329   1.485       .  S
O67          C82   1.260       .  A
O67         Al75   1.897       .  S
C68          O78   1.259       .  A
C68          O69   1.261       .  A
C68        C2478   1.487       .  S
O69         Al71   1.913       .  S
O70          C72   1.261       .  A
O70         Al71   1.891       .  S
Al71         O79   1.899       .  S
Al71         O81   1.915       .  S
Al71         O80   1.789       .  S
C72          O85   1.264       .  A
C72        C2578   1.485       .  S
O73          C83   1.259       .  A
O73         Al75   1.892       .  S
O74          C87   1.260       .  A
O74         Al84   1.900       .  S
Al75         O88   1.914       .  S
Al75         O85   1.922       .  S
Al75         O80   1.788       .  S
O76          C83   1.264       .  A
O76         Al84   1.918       .  S
O77          C86   1.266       .  A
O77         Al84   1.922       .  S
O78         Al84   1.900       .  S
O79          C86   1.262       .  A
O80         Al84   1.784       .  S
O81          C82   1.262       .  A
C82        C2309   1.485       .  S
C83        C2389   1.485       .  S
C86        C2269   1.485       .  S
C87          O88   1.262       .  A
C87        C2289   1.489       .  S
O89         C104   1.263       .  A
O89         Al97   1.900       .  S
C90         O100   1.262       .  A
C90          O91   1.266       .  A
C90        C2229   1.480       .  S
O91         Al93   1.924       .  S
O92          C94   1.257       .  A
O92         Al93   1.886       .  S
Al93        O101   1.893       .  S
Al93        O103   1.918       .  S
Al93        O102   1.778       .  S
C94         O107   1.261       .  A
C94        C2209   1.481       .  S
O95         C105   1.261       .  A
O95         Al97   1.901       .  S
O96         C109   1.263       .  A
O96        Al106   1.902       .  S
Al97        O110   1.921       .  S
Al97        O107   1.913       .  S
Al97        O102   1.780       .  S
O98         C105   1.261       .  A
O98        Al106   1.917       .  S
O99         C108   1.261       .  A
O99        Al106   1.911       .  S
O100       Al106   1.894       .  S
O101        C108   1.259       .  A
O102       Al106   1.781       .  S
O103        C104   1.266       .  A
C104       C2169   1.487       .  S
C105       C2249   1.474       .  S
C108       C2558   1.482       .  S
C109        O110   1.266       .  A
C109       C2189   1.480       .  S
O111        C126   1.261       .  A
O111       Al119   1.904       .  S
C112        O122   1.260       .  A
C112        O113   1.262       .  A
C112       C2129   1.484       .  S
O113       Al115   1.919       .  S
O114        C116   1.263       .  A
O114       Al115   1.904       .  S
Al115       O123   1.910       .  S
Al115       O125   1.914       .  S
Al115       O124   1.782       .  S
C116        O129   1.264       .  A
C116       C2158   1.481       .  S
O117        C127   1.260       .  A
O117       Al119   1.902       .  S
O118        C131   1.262       .  A
O118       Al128   1.901       .  S
Al119       O132   1.912       .  S
Al119       O129   1.915       .  S
Al119       O124   1.782       .  S
O120        C127   1.260       .  A
O120       Al128   1.900       .  S
O121        C130   1.263       .  A
O121       Al128   1.912       .  S
O122       Al128   1.901       .  S
O123        C130   1.265       .  A
O124       Al128   1.780       .  S
O125        C126   1.262       .  A
C126       C2109   1.479       .  S
C127       C2258   1.475       .  S
C130       C2338   1.484       .  S
C131        O132   1.264       .  A
C131       C2089   1.486       .  S
O133        C148   1.261       .  A
O133       Al141   1.896       .  S
C134        O144   1.259       .  A
C134        O135   1.262       .  A
C134       C2238   1.485       .  S
O135       Al137   1.912       .  S
O136        C138   1.260       .  A
O136       Al137   1.901       .  S
Al137       O145   1.903       .  S
Al137       O147   1.916       .  S
Al137       O146   1.788       .  S
C138        O151   1.262       .  A
C138       C2149   1.487       .  S
O139        C149   1.261       .  A
O139       Al141   1.891       .  S
O140        C153   1.260       .  A
O140       Al150   1.900       .  S
Al141       O154   1.911       .  S
Al141       O151   1.915       .  S
Al141       O146   1.785       .  S
O142        C149   1.262       .  A
O142       Al150   1.911       .  S
O143        C152   1.262       .  A
O143       Al150   1.907       .  S
O144       Al150   1.893       .  S
O145        C152   1.262       .  A
O146       Al150   1.785       .  S
O147        C148   1.264       .  A
C148       C2049   1.484       .  S
C149       C2078   1.477       .  S
C152       C2438   1.484       .  S
C153        O154   1.261       .  A
C153       C2029   1.484       .  S
O155        C170   1.261       .  A
O155       Al163   1.894       .  S
C156        O166   1.262       .  A
C156        O157   1.265       .  A
C156       C2138   1.487       .  S
O157       Al159   1.924       .  S
O158        C160   1.259       .  A
O158       Al159   1.888       .  S
Al159       O167   1.898       .  S
Al159       O169   1.918       .  S
Al159       O168   1.776       .  S
C160        O173   1.263       .  A
C160       C2218   1.476       .  S
O161        C171   1.259       .  A
O161       Al163   1.895       .  S
O162        C175   1.263       .  A
O162       Al172   1.897       .  S
Al163       O176   1.918       .  S
Al163       O173   1.914       .  S
Al163       O168   1.780       .  S
O164        C171   1.263       .  A
O164       Al172   1.918       .  S
O165        C174   1.264       .  A
O165       Al172   1.923       .  S
O166       Al172   1.898       .  S
O167        C174   1.261       .  A
O168       Al172   1.778       .  S
O169        C170   1.265       .  A
C170       C2009   1.484       .  S
C171       C2069   1.474       .  S
C174       C2298   1.485       .  S
C175        O176   1.265       .  A
C175       C1989   1.481       .  S
O177        C192   1.261       .  A
O177       Al185   1.900       .  S
C178        O188   1.260       .  A
C178        O179   1.264       .  A
C178       C1949   1.487       .  S
O179       Al181   1.922       .  S
O180        C182   1.259       .  A
O180       Al181   1.891       .  S
Al181       O189   1.896       .  S
Al181       O191   1.920       .  S
Al181       O190   1.783       .  S
C182        O195   1.263       .  A
C182       C1969   1.479       .  S
O183        C193   1.261       .  A
O183       Al185   1.900       .  S
O184        C197   1.262       .  A
O184       Al194   1.902       .  S
Al185       O198   1.916       .  S
Al185       O195   1.921       .  S
Al185       O190   1.782       .  S
O186        C193   1.263       .  A
O186       Al194   1.919       .  S
O187        C196   1.264       .  A
O187       Al194   1.915       .  S
O188       Al194   1.894       .  S
O189        C196   1.261       .  A
O190       Al194   1.782       .  S
O191        C192   1.265       .  A
C192       C1909   1.488       .  S
C193       C1938   1.487       .  S
C196       C2538   1.480       .  S
C197        O198   1.264       .  A
C197       C1889   1.487       .  S
O199        C214   1.261       .  A
O199       Al207   1.896       .  S
C200        O210   1.259       .  A
C200        O201   1.266       .  A
C200       C1849   1.485       .  S
O201       Al203   1.930       .  S
O202        C204   1.261       .  A
O202       Al203   1.897       .  S
Al203       O211   1.904       .  S
Al203       O213   1.925       .  S
Al203       O212   1.782       .  S
C204        O217   1.263       .  A
C204       C1978   1.483       .  S
O205        C215   1.259       .  A
O205       Al207   1.890       .  S
O206        C219   1.260       .  A
O206       Al216   1.892       .  S
Al207       O220   1.920       .  S
Al207       O217   1.915       .  S
Al207       O212   1.778       .  S
O208        C215   1.263       .  A
O208       Al216   1.921       .  S
O209        C218   1.263       .  A
O209       Al216   1.914       .  S
O210       Al216   1.886       .  S
O211        C218   1.262       .  A
O212       Al216   1.781       .  S
O213        C214   1.266       .  A
C214       C1809   1.486       .  S
C215       C1869   1.478       .  S
C218       C2409   1.486       .  S
C219        O220   1.266       .  A
C219       C1829   1.484       .  S
O221        C236   1.260       .  A
O221       Al229   1.889       .  S
C222        O232   1.260       .  A
C222        O223   1.265       .  A
C222       C1958   1.485       .  S
O223       Al225   1.922       .  S
O224        C226   1.258       .  A
O224       Al225   1.890       .  S
Al225       O233   1.893       .  S
Al225       O235   1.914       .  S
Al225       O234   1.782       .  S
C226        O239   1.262       .  A
C226       C1798   1.481       .  S
O227        C237   1.260       .  A
O227       Al229   1.895       .  S
O228        C241   1.261       .  A
O228       Al238   1.891       .  S
Al229       O242   1.916       .  S
Al229       O239   1.909       .  S
Al229       O234   1.786       .  S
O230        C237   1.262       .  A
O230       Al238   1.916       .  S
O231        C240   1.263       .  A
O231       Al238   1.916       .  S
O232       Al238   1.891       .  S
O233        C240   1.258       .  A
O234       Al238   1.781       .  S
O235        C236   1.264       .  A
C236       C1749   1.473       .  S
C237       C1878   1.483       .  S
C240       C2358   1.484       .  S
C241        O242   1.264       .  A
C241       C1769   1.481       .  S
O243        C258   1.260       .  A
O243       Al251   1.894       .  S
C244        O254   1.262       .  A
C244        O245   1.265       .  A
C244       C1858   1.484       .  S
O245       Al247   1.920       .  S
O246        C248   1.260       .  A
O246       Al247   1.893       .  S
Al247       O255   1.909       .  S
Al247       O257   1.914       .  S
Al247       O256   1.781       .  S
C248        O261   1.262       .  A
C248       C1789   1.481       .  S
O249        C259   1.260       .  A
O249       Al251   1.897       .  S
O250        C263   1.264       .  A
O250       Al260   1.907       .  S
Al251       O264   1.909       .  S
Al251       O261   1.913       .  S
Al251       O256   1.781       .  S
O252        C259   1.264       .  A
O252       Al260   1.923       .  S
O253        C262   1.263       .  A
O253       Al260   1.922       .  S
O254       Al260   1.894       .  S
O255        C262   1.262       .  A
O256       Al260   1.781       .  S
O257        C258   1.263       .  A
C258       C1709   1.479       .  S
C259       C1929   1.488       .  S
C262       C2278   1.481       .  S
C263        O264   1.263       .  A
C263       C1729   1.479       .  S
O265        C280   1.261       .  A
O265       Al273   1.896       .  S
C266        O276   1.259       .  A
C266        O267   1.263       .  A
C266       C1678   1.482       .  S
O267       Al269   1.918       .  S
O268        C270   1.258       .  A
O268       Al269   1.884       .  S
Al269       O277   1.894       .  S
Al269       O279   1.918       .  S
Al269       O278   1.781       .  S
C270        O283   1.263       .  A
C270       C1649   1.478       .  S
O271        C281   1.261       .  A
O271       Al273   1.897       .  S
O272        C285   1.260       .  A
O272       Al282   1.892       .  S
Al273       O286   1.911       .  S
Al273       O283   1.924       .  S
Al273       O278   1.786       .  S
O274        C281   1.264       .  A
O274       Al282   1.917       .  S
O275        C284   1.264       .  A
O275       Al282   1.920       .  S
O276       Al282   1.893       .  S
O277        C284   1.260       .  A
O278       Al282   1.784       .  S
O279        C280   1.264       .  A
C280       C2198   1.484       .  S
C281       C1698   1.485       .  S
C284       C1918   1.487       .  S
C285        O286   1.263       .  A
C285       C1629   1.480       .  S
O287        C302   1.262       .  A
O287       Al295   1.900       .  S
C288        O298   1.259       .  A
C288        O289   1.264       .  A
C288       C1609   1.484       .  S
O289       Al291   1.921       .  S
O290        C292   1.262       .  A
O290       Al291   1.900       .  S
Al291       O299   1.899       .  S
Al291       O301   1.916       .  S
Al291       O300   1.781       .  S
C292        O305   1.262       .  A
C292       C1598   1.485       .  S
O293        C303   1.261       .  A
O293       Al295   1.896       .  S
O294        C307   1.259       .  A
O294       Al304   1.890       .  S
Al295       O308   1.914       .  S
Al295       O305   1.913       .  S
Al295       O300   1.782       .  S
O296        C303   1.262       .  A
O296       Al304   1.915       .  S
O297        C306   1.263       .  A
O297       Al304   1.910       .  S
O298       Al304   1.892       .  S
O299        C306   1.261       .  A
O300       Al304   1.783       .  S
O301        C302   1.264       .  A
C302       C1998   1.486       .  S
C303       C1689   1.484       .  S
C306       C1718   1.483       .  S
C307        O308   1.263       .  A
C307       C1578   1.481       .  S
O309        C324   1.261       .  A
O309       Al317   1.889       .  S
C310        O320   1.259       .  A
C310        O311   1.263       .  A
C310       C1669   1.482       .  S
O311       Al313   1.923       .  S
O312        C314   1.261       .  A
O312       Al313   1.895       .  S
Al313       O321   1.892       .  S
Al313       O323   1.924       .  S
Al313       O322   1.782       .  S
C314        O327   1.265       .  A
C314       C1589   1.486       .  S
O315        C325   1.259       .  A
O315       Al317   1.887       .  S
O316        C329   1.261       .  A
O316       Al326   1.892       .  S
Al317       O330   1.923       .  S
Al317       O327   1.924       .  S
Al317       O322   1.779       .  S
O318        C325   1.264       .  A
O318       Al326   1.923       .  S
O319        C328   1.268       .  A
O319       Al326   1.933       .  S
O320       Al326   1.892       .  S
O321        C328   1.261       .  A
O322       Al326   1.780       .  S
O323        C324   1.265       .  A
C324       C2038   1.483       .  S
C325       C1549   1.475       .  S
C328       C1818   1.489       .  S
C329        O330   1.265       .  A
C329       C1529   1.482       .  S
O331        C346   1.264       .  A
O331       Al339   1.910       .  S
C332        O342   1.260       .  A
C332        O333   1.261       .  A
C332       C1618   1.487       .  S
O333       Al335   1.908       .  S
O334        C336   1.258       .  A
O334       Al335   1.890       .  S
Al335       O343   1.892       .  S
Al335       O345   1.907       .  S
Al335       O344   1.788       .  S
C336        O349   1.260       .  A
C336       C1658   1.481       .  S
O337        C347   1.263       .  A
O337       Al339   1.902       .  S
O338        C351   1.261       .  A
O338       Al348   1.903       .  S
Al339       O352   1.902       .  S
Al339       O349   1.909       .  S
Al339       O344   1.790       .  S
O340        C347   1.261       .  A
O340       Al348   1.906       .  S
O341        C350   1.260       .  A
O341       Al348   1.902       .  S
O342       Al348   1.900       .  S
O343        C350   1.259       .  A
O344       Al348   1.788       .  S
O345        C346   1.264       .  A
C346       C2098   1.486       .  S
C347       C1558   1.482       .  S
C350       C1758   1.471       .  S
C351        O352   1.260       .  A
C351       C1518   1.483       .  S
O353        C368   1.261       .  A
O353       Al361   1.897       .  S
C354        O364   1.261       .  A
C354        O355   1.263       .  A
C354       C1449   1.485       .  S
O355       Al357   1.916       .  S
O356        C358   1.259       .  A
O356       Al357   1.886       .  S
Al357       O365   1.895       .  S
Al357       O367   1.909       .  S
Al357       O366   1.779       .  S
C358        O371   1.264       .  A
C358       C1498   1.478       .  S
O359        C369   1.259       .  A
O359       Al361   1.892       .  S
O360        C373   1.263       .  A
O360       Al370   1.904       .  S
Al361       O374   1.922       .  S
Al361       O371   1.918       .  S
Al361       O366   1.779       .  S
O362        C369   1.263       .  A
O362       Al370   1.914       .  S
O363        C372   1.264       .  A
O363       Al370   1.915       .  S
O364       Al370   1.900       .  S
O365        C372   1.260       .  A
O366       Al370   1.779       .  S
O367        C368   1.262       .  A
C368       C1409   1.477       .  S
C369       C1469   1.482       .  S
C372       C2518   1.472       .  S
C373        O374   1.265       .  A
C373       C1438   1.490       .  S
O375        C390   1.262       .  A
O375       Al383   1.893       .  S
C376        O386   1.258       .  A
C376        O377   1.263       .  A
C376       C1389   1.481       .  S
O377       Al379   1.917       .  S
O378        C380   1.258       .  A
O378       Al379   1.892       .  S
Al379       O387   1.891       .  S
Al379       O389   1.925       .  S
Al379       O388   1.777       .  S
C380        O393   1.261       .  A
C380       C1489   1.475       .  S
O381        C391   1.262       .  A
O381       Al383   1.897       .  S
O382        C395   1.261       .  A
O382       Al392   1.891       .  S
Al383       O396   1.912       .  S
Al383       O393   1.914       .  S
Al383       O388   1.782       .  S
O384        C391   1.266       .  A
O384       Al392   1.920       .  S
O385        C394   1.265       .  A
O385       Al392   1.926       .  S
O386       Al392   1.890       .  S
O387        C394   1.260       .  A
O388       Al392   1.776       .  S
O389        C390   1.267       .  A
C390       C1349   1.481       .  S
C391       C1369   1.483       .  S
C394       C2378   1.486       .  S
C395        O396   1.261       .  A
C395       C1329   1.479       .  S
O397        C412   1.261       .  A
O397       Al405   1.895       .  S
C398        O408   1.260       .  A
C398        O399   1.265       .  A
C398       C1398   1.485       .  S
O399       Al401   1.922       .  S
O400        C402   1.257       .  A
O400       Al401   1.880       .  S
Al401       O409   1.891       .  S
Al401       O411   1.916       .  S
Al401       O410   1.779       .  S
C402        O415   1.263       .  A
C402       C1309   1.477       .  S
O403        C413   1.258       .  A
O403       Al405   1.892       .  S
O404        C417   1.262       .  A
O404       Al414   1.894       .  S
Al405       O418   1.924       .  S
Al405       O415   1.914       .  S
Al405       O410   1.781       .  S
O406        C413   1.263       .  A
O406       Al414   1.917       .  S
O407        C416   1.264       .  A
O407       Al414   1.919       .  S
O408       Al414   1.894       .  S
O409        C416   1.259       .  A
O410       Al414   1.779       .  S
O411        C412   1.264       .  A
C412       C1278   1.484       .  S
C413       C1478   1.481       .  S
C416       C2458   1.482       .  S
C417        O418   1.265       .  A
C417       C1289   1.486       .  S
O419        C434   1.260       .  A
O419       Al427   1.895       .  S
C420        O430   1.261       .  A
C420        O421   1.261       .  A
C420       C1458   1.484       .  S
O421       Al423   1.915       .  S
O422        C424   1.259       .  A
O422       Al423   1.885       .  S
Al423       O431   1.893       .  S
Al423       O433   1.919       .  S
Al423       O432   1.781       .  S
C424        O437   1.262       .  A
C424       C1318   1.471       .  S
O425        C435   1.260       .  A
O425       Al427   1.891       .  S
O426        C439   1.263       .  A
O426       Al436   1.902       .  S
Al427       O440   1.904       .  S
Al427       O437   1.912       .  S
Al427       O432   1.780       .  S
O428        C435   1.263       .  A
O428       Al436   1.915       .  S
O429        C438   1.267       .  A
O429       Al436   1.923       .  S
O430       Al436   1.902       .  S
O431        C438   1.262       .  A
O432       Al436   1.779       .  S
O433        C434   1.264       .  A
C434       C1229   1.483       .  S
C435       C1378   1.482       .  S
C438       C2318   1.485       .  S
C439        O440   1.262       .  A
C439       C1249   1.483       .  S
O441        C456   1.261       .  A
O441       Al449   1.893       .  S
C442        O452   1.261       .  A
C442        O443   1.265       .  A
C442       C1169   1.482       .  S
O443       Al445   1.923       .  S
O444        C446   1.259       .  A
O444       Al445   1.895       .  S
Al445       O453   1.899       .  S
Al445       O455   1.922       .  S
Al445       O454   1.777       .  S
C446        O459   1.265       .  A
C446       C1198   1.486       .  S
O447        C457   1.260       .  A
O447       Al449   1.892       .  S
O448        C461   1.262       .  A
O448       Al458   1.899       .  S
Al449       O462   1.931       .  S
Al449       O459   1.927       .  S
Al449       O454   1.779       .  S
O450        C457   1.262       .  A
O450       Al458   1.912       .  S
O451        C460   1.263       .  A
O451       Al458   1.914       .  S
O452       Al458   1.897       .  S
O453        C460   1.261       .  A
O454       Al458   1.778       .  S
O455        C456   1.265       .  A
C456       C1298   1.481       .  S
C457       C1209   1.479       .  S
C460       C2058   1.482       .  S
C461        O462   1.267       .  A
C461       C1149   1.484       .  S
O463        C478   1.261       .  A
O463       Al471   1.900       .  S
C464        O474   1.261       .  A
C464        O465   1.264       .  A
C464       C1109   1.482       .  S
O465       Al467   1.926       .  S
O466        C468   1.263       .  A
O466       Al467   1.907       .  S
Al467       O475   1.908       .  S
Al467       O477   1.913       .  S
Al467       O476   1.778       .  S
C468        O481   1.264       .  A
C468       C1129   1.485       .  S
O469        C479   1.259       .  A
O469       Al471   1.893       .  S
O470        C483   1.261       .  A
O470       Al480   1.896       .  S
Al471       O484   1.920       .  S
Al471       O481   1.914       .  S
Al471       O476   1.782       .  S
O472        C479   1.261       .  A
O472       Al480   1.906       .  S
O473        C482   1.261       .  A
O473       Al480   1.905       .  S
O474       Al480   1.894       .  S
O475        C482   1.264       .  A
O476       Al480   1.779       .  S
O477        C478   1.264       .  A
C478       C1258   1.481       .  S
C479       C1218   1.479       .  S
C482       C2018   1.482       .  S
C483        O484   1.265       .  A
C483       C1098   1.481       .  S
O485        C500   1.263       .  A
O485       Al493   1.914       .  S
C486        O496   1.261       .  A
C486        O487   1.262       .  A
C486       C1118   1.484       .  S
O487       Al489   1.912       .  S
O488        C490   1.262       .  A
O488       Al489   1.902       .  S
Al489       O497   1.906       .  S
Al489       O499   1.913       .  S
Al489       O498   1.780       .  S
C490        O503   1.262       .  A
C490       C1189   1.486       .  S
O491        C501   1.262       .  A
O491       Al493   1.902       .  S
O492        C505   1.261       .  A
O492       Al502   1.902       .  S
Al493       O506   1.904       .  S
Al493       O503   1.912       .  S
Al493       O498   1.786       .  S
O494        C501   1.263       .  A
O494       Al502   1.912       .  S
O495        C504   1.262       .  A
O495       Al502   1.909       .  S
O496       Al502   1.902       .  S
O497        C504   1.263       .  A
O498       Al502   1.784       .  S
O499        C500   1.264       .  A
C500       C1429   1.490       .  S
C501       C1069   1.486       .  S
C504       C2178   1.484       .  S
C505        O506   1.261       .  A
C505       C1049   1.475       .  S
O507        C522   1.261       .  A
O507       Al515   1.890       .  S
C508        O518   1.261       .  A
C508        O509   1.262       .  A
C508       C1178   1.482       .  S
O509       Al511   1.911       .  S
O510        C512   1.259       .  A
O510       Al511   1.896       .  S
Al511       O519   1.903       .  S
Al511       O521   1.914       .  S
Al511       O520   1.786       .  S
C512        O525   1.262       .  A
C512       C1138   1.489       .  S
O513        C523   1.260       .  A
O513       Al515   1.889       .  S
O514        C527   1.262       .  A
O514       Al524   1.907       .  S
Al515       O528   1.916       .  S
Al515       O525   1.921       .  S
Al515       O520   1.784       .  S
O516        C523   1.263       .  A
O516       Al524   1.918       .  S
O517        C526   1.261       .  A
O517       Al524   1.905       .  S
O518       Al524   1.893       .  S
O519        C526   1.262       .  A
O520       Al524   1.786       .  S
O521        C522   1.264       .  A
C522       C1338   1.481       .  S
C523       C1078   1.483       .  S
C526       C2118   1.485       .  S
C527        O528   1.263       .  A
C527       C1038   1.490       .  S
O529        C544   1.262       .  A
O529       Al537   1.896       .  S
C530        O540   1.260       .  A
C530        O531   1.262       .  A
C530        C978   1.479       .  S
O531       Al533   1.908       .  S
O532        C534   1.259       .  A
O532       Al533   1.891       .  S
Al533       O541   1.890       .  S
Al533       O543   1.910       .  S
Al533       O542   1.776       .  S
C534        O547   1.264       .  A
C534       C1018   1.476       .  S
O535        C545   1.260       .  A
O535       Al537   1.894       .  S
O536        C549   1.261       .  A
O536       Al546   1.893       .  S
Al537       O550   1.929       .  S
Al537       O547   1.923       .  S
Al537       O542   1.779       .  S
O538        C545   1.262       .  A
O538       Al546   1.910       .  S
O539        C548   1.263       .  A
O539       Al546   1.911       .  S
O540       Al546   1.893       .  S
O541        C548   1.260       .  A
O542       Al546   1.780       .  S
O543        C544   1.263       .  A
C544       C1058   1.479       .  S
C545        C989   1.480       .  S
C548       C1638   1.478       .  S
C549        O550   1.267       .  A
C549        C949   1.486       .  S
O551        C566   1.263       .  A
O551       Al559   1.899       .  S
C552        O562   1.260       .  A
C552        O553   1.262       .  A
C552       C1009   1.477       .  S
O553       Al555   1.911       .  S
O554        C556   1.260       .  A
O554       Al555   1.897       .  S
Al555       O563   1.903       .  S
Al555       O565   1.916       .  S
Al555       O564   1.778       .  S
C556        O569   1.261       .  A
C556        C918   1.477       .  S
O557        C567   1.259       .  A
O557       Al559   1.890       .  S
O558        C571   1.261       .  A
O558       Al568   1.895       .  S
Al559       O572   1.909       .  S
Al559       O569   1.911       .  S
Al559       O564   1.782       .  S
O560        C567   1.265       .  A
O560       Al568   1.926       .  S
O561        C570   1.264       .  A
O561       Al568   1.921       .  S
O562       Al568   1.894       .  S
O563        C570   1.263       .  A
O564       Al568   1.783       .  S
O565        C566   1.265       .  A
C566        C889   1.485       .  S
C567        C929   1.477       .  S
C570       C1029   1.490       .  S
C571        O572   1.262       .  A
C571       C1509   1.478       .  S
O573        C588   1.262       .  A
O573       Al581   1.900       .  S
C574        O584   1.259       .  A
C574        O575   1.259       .  A
C574        C878   1.481       .  S
O575       Al577   1.905       .  S
O576        C578   1.259       .  A
O576       Al577   1.890       .  S
Al577       O585   1.889       .  S
Al577       O587   1.905       .  S
Al577       O586   1.783       .  S
C578        O591   1.261       .  A
C578        C998   1.476       .  S
O579        C589   1.259       .  A
O579       Al581   1.880       .  S
O580        C593   1.260       .  A
O580       Al590   1.904       .  S
Al581       O594   1.910       .  S
Al581       O591   1.910       .  S
Al581       O586   1.788       .  S
O582        C589   1.266       .  A
O582       Al590   1.928       .  S
O583        C592   1.267       .  A
O583       Al590   1.927       .  S
O584       Al590   1.899       .  S
O585        C592   1.260       .  A
O586       Al590   1.783       .  S
O587        C588   1.262       .  A
C588        C858   1.472       .  S
C589        C938   1.481       .  S
C592       C1158   1.487       .  S
C593        O594   1.261       .  A
C593       C1538   1.477       .  S
O595        C610   1.262       .  A
O595       Al603   1.891       .  S
C596        O606   1.259       .  A
C596        O597   1.265       .  A
C596        C869   1.478       .  S
O597       Al599   1.925       .  S
O598        C600   1.261       .  A
O598       Al599   1.901       .  S
Al599       O607   1.896       .  S
Al599       O609   1.919       .  S
Al599       O608   1.781       .  S
C600        O613   1.261       .  A
C600        C909   1.479       .  S
O601        C611   1.261       .  A
O601       Al603   1.891       .  S
O602        C615   1.260       .  A
O602       Al612   1.894       .  S
Al603       O616   1.912       .  S
Al603       O613   1.906       .  S
Al603       O608   1.780       .  S
O604        C611   1.262       .  A
O604       Al612   1.911       .  S
O605        C614   1.262       .  A
O605       Al612   1.907       .  S
O606       Al612   1.892       .  S
O607        C614   1.261       .  A
O608       Al612   1.781       .  S
O609        C610   1.265       .  A
C610        C829   1.481       .  S
C611        C969   1.478       .  S
C614       C1089   1.482       .  S
C615        O616   1.263       .  A
C615       C1569   1.479       .  S
O617        C632   1.260       .  A
O617       Al625   1.894       .  S
C618        O628   1.262       .  A
C618        O619   1.262       .  A
C618        C789   1.486       .  S
O619       Al621   1.909       .  S
O620        C622   1.259       .  A
O620       Al621   1.891       .  S
Al621       O629   1.891       .  S
Al621       O631   1.911       .  S
Al621       O630   1.780       .  S
C622        O635   1.264       .  A
C622        C769   1.481       .  S
O623        C633   1.260       .  A
O623       Al625   1.888       .  S
O624        C637   1.262       .  A
O624       Al634   1.904       .  S
Al625       O638   1.914       .  S
Al625       O635   1.922       .  S
Al625       O630   1.781       .  S
O626        C633   1.265       .  A
O626       Al634   1.926       .  S
O627        C636   1.266       .  A
O627       Al634   1.923       .  S
O628       Al634   1.904       .  S
O629        C636   1.260       .  A
O630       Al634   1.782       .  S
O631        C632   1.263       .  A
C632       C1778   1.476       .  S
C633        C809   1.485       .  S
C636       C1358   1.485       .  S
C637        O638   1.263       .  A
C637        C898   1.487       .  S
O639        C654   1.262       .  A
O639       Al647   1.896       .  S
C640        O650   1.260       .  A
C640        O641   1.263       .  A
C640        C729   1.481       .  S
O641       Al643   1.916       .  S
O642        C644   1.260       .  A
O642       Al643   1.903       .  S
Al643       O651   1.901       .  S
Al643       O653   1.915       .  S
Al643       O652   1.781       .  S
C644        O657   1.262       .  A
C644        C749   1.489       .  S
O645        C655   1.261       .  A
O645       Al647   1.895       .  S
O646        C659   1.261       .  A
O646       Al656   1.893       .  S
Al647       O660   1.916       .  S
Al647       O657   1.917       .  S
Al647       O652   1.782       .  S
O648        C655   1.263       .  A
O648       Al656   1.920       .  S
O649        C658   1.263       .  A
O649       Al656   1.912       .  S
O650       Al656   1.886       .  S
O651        C658   1.261       .  A
O652       Al656   1.783       .  S
O653        C654   1.264       .  A
C654       C1738   1.483       .  S
C655        C818   1.483       .  S
C658       C1238   1.486       .  S
C659        O660   1.263       .  A
C659        C838   1.482       .  S
O661        C676   1.262       .  A
O661       Al669   1.906       .  S
C662        O672   1.259       .  A
C662        O663   1.261       .  A
C662        C798   1.483       .  S
O663       Al665   1.915       .  S
O664        C666   1.261       .  A
O664       Al665   1.896       .  S
Al665       O673   1.888       .  S
Al665       O675   1.914       .  S
Al665       O674   1.784       .  S
C666        O679   1.266       .  A
C666        C758   1.487       .  S
O667        C677   1.261       .  A
O667       Al669   1.897       .  S
O668        C681   1.260       .  A
O668       Al678   1.899       .  S
Al669       O682   1.919       .  S
Al669       O679   1.923       .  S
Al669       O674   1.780       .  S
O670        C677   1.263       .  A
O670       Al678   1.914       .  S
O671        C680   1.266       .  A
O671       Al678   1.917       .  S
O672       Al678   1.900       .  S
O673        C680   1.261       .  A
O674       Al678   1.783       .  S
O675        C676   1.262       .  A
C676       C1898   1.487       .  S
C677        C709   1.487       .  S
C680       C1418   1.481       .  S
C681        O682   1.264       .  A
C681        C958   1.489       .  S
O683        C698   1.262       .  A
O683       Al691   1.909       .  S
C684        O694   1.259       .  A
C684        O685   1.260       .  A
C684        C738   1.481       .  S
O685       Al687   1.911       .  S
O686        C688   1.262       .  A
O686       Al687   1.896       .  S
Al687       O695   1.901       .  S
Al687       O697   1.908       .  S
Al687       O696   1.785       .  S
C688        O701   1.264       .  A
C688        C778   1.483       .  S
O689        C699   1.262       .  A
O689       Al691   1.911       .  S
O690        C703   1.260       .  A
O690       Al700   1.892       .  S
Al691       O704   1.908       .  S
Al691       O701   1.914       .  S
Al691       O696   1.784       .  S
O692        C699   1.260       .  A
O692       Al700   1.902       .  S
O693        C702   1.264       .  A
O693       Al700   1.916       .  S
O694       Al700   1.894       .  S
O695        C702   1.263       .  A
O696       Al700   1.784       .  S
O697        C698   1.261       .  A
C698       C1838   1.484       .  S
C699        C718   1.486       .  S
C702       C1269   1.483       .  S
C703        O704   1.262       .  A
C703        C849   1.473       .  S
C705        C706   1.403       .  A
C705        C710   1.399       .  A
C705        H715   1.083       .  S
C706        C711   1.488       .  S
C706        C707   1.408       .  A
C707        C708   1.399       .  A
C707        F712   1.358       .  S
C708        C709   1.406       .  A
C708        H713   1.083       .  S
C709        C710   1.411       .  A
C710        F714   1.357       .  S
C711        C716   1.409       .  A
C711        C720   1.402       .  A
C716        C717   1.402       .  A
C716        F721   1.357       .  S
C717        C718   1.406       .  A
C717        H722   1.083       .  S
C718        C719   1.412       .  A
C719        C720   1.396       .  A
C719        F723   1.358       .  S
C720        H724   1.083       .  S
C725        C726   1.401       .  A
C725        C730   1.397       .  A
C725        H735   1.083       .  S
C726        C731   1.476       .  S
C726        C727   1.404       .  A
C727        C728   1.396       .  A
C727        F732   1.358       .  S
C728        C729   1.407       .  A
C728        H733   1.083       .  S
C729        C730   1.410       .  A
C730        F734   1.357       .  S
C731        C736   1.404       .  A
C731        C740   1.401       .  A
C736        C737   1.398       .  A
C736        F741   1.358       .  S
C737        C738   1.407       .  A
C737        H742   1.083       .  S
C738        C739   1.411       .  A
C739        C740   1.396       .  A
C739        F743   1.357       .  S
C740        H744   1.083       .  S
C745        C746   1.406       .  A
C745        C750   1.401       .  A
C745        H755   1.083       .  S
C746        C751   1.491       .  S
C746        C747   1.408       .  A
C747        C748   1.399       .  A
C747        F752   1.358       .  S
C748        C749   1.408       .  A
C748        H753   1.083       .  S
C749        C750   1.410       .  A
C750        F754   1.357       .  S
C751        C756   1.408       .  A
C751        C760   1.407       .  A
C756        C757   1.398       .  A
C756        F761   1.357       .  S
C757        C758   1.407       .  A
C757        H762   1.083       .  S
C758        C759   1.410       .  A
C759        C760   1.400       .  A
C759        F763   1.358       .  S
C760        H764   1.083       .  S
C765        C766   1.402       .  A
C765        C770   1.398       .  A
C765        H775   1.083       .  S
C766        C771   1.475       .  S
C766        C767   1.403       .  A
C767        C768   1.397       .  A
C767        F772   1.358       .  S
C768        C769   1.407       .  A
C768        H773   1.083       .  S
C769        C770   1.410       .  A
C770        F774   1.358       .  S
C771        C776   1.402       .  A
C771        C780   1.402       .  A
C776        C777   1.398       .  A
C776        F781   1.358       .  S
C777        C778   1.409       .  A
C777        H782   1.083       .  S
C778        C779   1.409       .  A
C779        C780   1.397       .  A
C779        F783   1.357       .  S
C780        H784   1.084       .  S
C785        C786   1.401       .  A
C785        C790   1.396       .  A
C785        H795   1.083       .  S
C786        C791   1.483       .  S
C786        C787   1.407       .  A
C787        C788   1.402       .  A
C787        F792   1.358       .  S
C788        C789   1.407       .  A
C788        H793   1.083       .  S
C789        C790   1.412       .  A
C790        F794   1.357       .  S
C791        C796   1.407       .  A
C791        C800   1.403       .  A
C796        C797   1.399       .  A
C796        F801   1.358       .  S
C797        C798   1.406       .  A
C797        H802   1.083       .  S
C798        C799   1.410       .  A
C799        C800   1.399       .  A
C799        F803   1.357       .  S
C800        H804   1.083       .  S
C805        C806   1.404       .  A
C805        C810   1.399       .  A
C805        H815   1.083       .  S
C806        C811   1.483       .  S
C806        C807   1.405       .  A
C807        C808   1.397       .  A
C807        F812   1.357       .  S
C808        C809   1.407       .  A
C808        H813   1.083       .  S
C809        C810   1.411       .  A
C810        F814   1.357       .  S
C811        C816   1.406       .  A
C811        C820   1.404       .  A
C816        C817   1.398       .  A
C816        F821   1.357       .  S
C817        C818   1.406       .  A
C817        H822   1.083       .  S
C818        C819   1.411       .  A
C819        C820   1.399       .  A
C819        F823   1.358       .  S
C820        H824   1.083       .  S
C825        C826   1.403       .  A
C825        C830   1.397       .  A
C825        H835   1.083       .  S
C826        C831   1.480       .  S
C826        C827   1.405       .  A
C827        C828   1.397       .  A
C827        F832   1.357       .  S
C828        C829   1.406       .  A
C828        H833   1.083       .  S
C829        C830   1.410       .  A
C830        F834   1.358       .  S
C831        C836   1.405       .  A
C831        C840   1.403       .  A
C836        C837   1.398       .  A
C836        F841   1.357       .  S
C837        C838   1.407       .  A
C837        H842   1.083       .  S
C838        C839   1.411       .  A
C839        C840   1.396       .  A
C839        F843   1.358       .  S
C840        H844   1.083       .  S
C845        C846   1.405       .  A
C845        C850   1.397       .  A
C845        H855   1.083       .  S
C846        C851   1.486   1_565  S
C846        C847   1.410       .  A
C847        C848   1.398       .  A
C847        F852   1.358       .  S
C848        C849   1.403       .  A
C848        H853   1.084       .  S
C849        C850   1.405       .  A
C850        F854   1.357       .  S
C851        C856   1.408       .  A
C851        C860   1.408       .  A
C856        C857   1.396       .  A
C856        F861   1.357       .  S
C857        C858   1.403       .  A
C857        H862   1.084       .  S
C858        C859   1.404       .  A
C859        C860   1.399       .  A
C859        F863   1.358       .  S
C860        H864   1.083       .  S
C865        C866   1.407       .  A
C865        C870   1.400       .  A
C865        H875   1.083       .  S
C866        C871   1.488       .  S
C866        C867   1.408       .  A
C867        C868   1.398       .  A
C867        F872   1.357       .  S
C868        C869   1.404       .  A
C868        H873   1.083       .  S
C869        C870   1.407       .  A
C870        F874   1.358       .  S
C871        C876   1.407       .  A
C871        C880   1.407       .  A
C876        C877   1.399       .  A
C876        F881   1.358       .  S
C877        C878   1.407       .  A
C877        H882   1.083       .  S
C878        C879   1.406       .  A
C879        C880   1.398       .  A
C879        F883   1.357       .  S
C880        H884   1.083       .  S
C885        C886   1.403       .  A
C885        C890   1.396       .  A
C885        H895   1.083       .  S
C886        C891   1.487       .  S
C886        C887   1.408       .  A
C887        C888   1.401       .  A
C887        F892   1.357       .  S
C888        C889   1.407       .  A
C888        H893   1.083       .  S
C889        C890   1.410       .  A
C890        F894   1.358       .  S
C891        C896   1.408       .  A
C891        C900   1.403       .  A
C896        C897   1.400       .  A
C896        F901   1.358       .  S
C897        C898   1.406       .  A
C897        H902   1.083       .  S
C898        C899   1.412       .  A
C899        C900   1.398       .  A
C899        F903   1.357       .  S
C900        H904   1.083       .  S
C905        C906   1.405       .  A
C905        C910   1.400       .  A
C905        H915   1.083       .  S
C906        C911   1.481       .  S
C906        C907   1.405       .  A
C907        C908   1.394       .  A
C907        F912   1.358       .  S
C908        C909   1.406       .  A
C908        H913   1.083       .  S
C909        C910   1.408       .  A
C910        F914   1.357       .  S
C911        C916   1.406       .  A
C911        C920   1.405       .  A
C916        C917   1.398       .  A
C916        F921   1.358       .  S
C917        C918   1.406       .  A
C917        H922   1.083       .  S
C918        C919   1.406       .  A
C919        C920   1.396       .  A
C919        F923   1.357       .  S
C920        H924   1.083       .  S
C925        C926   1.404       .  A
C925        C930   1.398       .  A
C925        H935   1.083       .  S
C926        C931   1.484       .  S
C926        C927   1.408       .  A
C927        C928   1.398       .  A
C927        F932   1.358       .  S
C928        C929   1.404       .  A
C928        H933   1.083       .  S
C929        C930   1.408       .  A
C930        F934   1.358       .  S
C931        C936   1.408       .  A
C931        C940   1.403       .  A
C936        C937   1.400       .  A
C936        F941   1.357       .  S
C937        C938   1.405       .  A
C937        H942   1.083       .  S
C938        C939   1.409       .  A
C939        C940   1.396       .  A
C939        F943   1.358       .  S
C940        H944   1.083       .  S
C945        C946   1.406       .  A
C945        C950   1.400       .  A
C945        H955   1.083       .  S
C946        C951   1.491   1_545  S
C946        C947   1.409       .  A
C947        C948   1.399       .  A
C947        F952   1.357       .  S
C948        C949   1.406       .  A
C948        H953   1.083       .  S
C949        C950   1.410       .  A
C950        F954   1.358       .  S
C951        C956   1.408       .  A
C951        C960   1.406       .  A
C956        C957   1.399       .  A
C956        F961   1.357       .  S
C957        C958   1.407       .  A
C957        H962   1.083       .  S
C958        C959   1.411       .  A
C959        C960   1.401       .  A
C959        F963   1.357       .  S
C960        H964   1.083       .  S
C965        C966   1.401       .  A
C965        C970   1.395       .  A
C965        H975   1.083       .  S
C966        C971   1.477       .  S
C966        C967   1.406       .  A
C967        C968   1.395       .  A
C967        F972   1.358       .  S
C968        C969   1.405       .  A
C968        H973   1.083       .  S
C969        C970   1.411       .  A
C970        F974   1.357       .  S
C971        C976   1.407       .  A
C971        C980   1.401       .  A
C976        C977   1.398       .  A
C976        F981   1.358       .  S
C977        C978   1.406       .  A
C977        H982   1.083       .  S
C978        C979   1.410       .  A
C979        C980   1.393       .  A
C979        F983   1.357       .  S
C980        H984   1.083       .  S
C985        C986   1.400       .  A
C985        C990   1.395       .  A
C985        H995   1.084       .  S
C986        C991   1.474       .  S
C986        C987   1.404       .  A
C987        C988   1.396       .  A
C987        F992   1.358       .  S
C988        C989   1.406       .  A
C988        H993   1.083       .  S
C989        C990   1.412       .  A
C990        F994   1.357       .  S
C991        C996   1.405       .  A
C991       C1000   1.401       .  A
C996        C997   1.397       .  A
C996       F1001   1.358       .  S
C997        C998   1.406       .  A
C997       H1002   1.083       .  S
C998        C999   1.409       .  A
C999       C1000   1.394       .  A
C999       F1003   1.358       .  S
C1000      H1004   1.084       .  S
C1005      C1006   1.406       .  A
C1005      C1010   1.398       .  A
C1005      H1015   1.083       .  S
C1006      C1011   1.485       .  S
C1006      C1007   1.407       .  A
C1007      C1008   1.397       .  A
C1007      F1012   1.357       .  S
C1008      C1009   1.406       .  A
C1008      H1013   1.083       .  S
C1009      C1010   1.406       .  A
C1010      F1014   1.357       .  S
C1011      C1016   1.407       .  A
C1011      C1020   1.406       .  A
C1016      C1017   1.397       .  A
C1016      F1021   1.357       .  S
C1017      C1018   1.403       .  A
C1017      H1022   1.083       .  S
C1018      C1019   1.407       .  A
C1019      C1020   1.398       .  A
C1019      F1023   1.358       .  S
C1020      H1024   1.083       .  S
C1025      C1026   1.407       .  A
C1025      C1030   1.402       .  A
C1025      H1035   1.082       .  S
C1026      C1031   1.497   1_455  S
C1026      C1027   1.411       .  A
C1027      C1028   1.400       .  A
C1027      F1032   1.357       .  S
C1028      C1029   1.405       .  A
C1028      H1033   1.083       .  S
C1029      C1030   1.411       .  A
C1030      F1034   1.358       .  S
C1031      C1036   1.411       .  A
C1031      C1040   1.406       .  A
C1036      C1037   1.404       .  A
C1036      F1041   1.357       .  S
C1037      C1038   1.408       .  A
C1037      H1042   1.083       .  S
C1038      C1039   1.410       .  A
C1039      C1040   1.397       .  A
C1039      F1043   1.357       .  S
C1040      H1044   1.083       .  S
C1045      C1046   1.403       .  A
C1045      C1050   1.393       .  A
C1045      H1055   1.083       .  S
C1046      C1051   1.483   1_655  S
C1046      C1047   1.409       .  A
C1047      C1048   1.401       .  A
C1047      F1052   1.357       .  S
C1048      C1049   1.404       .  A
C1048      H1053   1.083       .  S
C1049      C1050   1.407       .  A
C1050      F1054   1.358       .  S
C1051      C1056   1.408       .  A
C1051      C1060   1.403       .  A
C1056      C1057   1.397       .  A
C1056      F1061   1.358       .  S
C1057      C1058   1.404       .  A
C1057      H1062   1.083       .  S
C1058      C1059   1.410       .  A
C1059      C1060   1.397       .  A
C1059      F1063   1.358       .  S
C1060      H1064   1.083       .  S
C1065      C1066   1.403       .  A
C1065      C1070   1.395       .  A
C1065      H1075   1.083       .  S
C1066      C1071   1.487       .  S
C1066      C1067   1.409       .  A
C1067      C1068   1.401       .  A
C1067      F1072   1.357       .  S
C1068      C1069   1.407       .  A
C1068      H1073   1.083       .  S
C1069      C1070   1.411       .  A
C1070      F1074   1.357       .  S
C1071      C1076   1.408       .  A
C1071      C1080   1.405       .  A
C1076      C1077   1.396       .  A
C1076      F1081   1.357       .  S
C1077      C1078   1.405       .  A
C1077      H1082   1.083       .  S
C1078      C1079   1.410       .  A
C1079      C1080   1.400       .  A
C1079      F1083   1.358       .  S
C1080      H1084   1.083       .  S
C1085      C1086   1.406       .  A
C1085      C1090   1.398       .  A
C1085      H1095   1.083       .  S
C1086      C1091   1.486       .  S
C1086      C1087   1.407       .  A
C1087      C1088   1.396       .  A
C1087      F1092   1.357       .  S
C1088      C1089   1.407       .  A
C1088      H1093   1.083       .  S
C1089      C1090   1.408       .  A
C1090      F1094   1.357       .  S
C1091      C1096   1.407       .  A
C1091      C1100   1.406       .  A
C1096      C1097   1.396       .  A
C1096      F1101   1.358       .  S
C1097      C1098   1.405       .  A
C1097      H1102   1.083       .  S
C1098      C1099   1.408       .  A
C1099      C1100   1.400       .  A
C1099      F1103   1.358       .  S
C1100      H1104   1.083       .  S
C1105      C1106   1.406       .  A
C1105      C1110   1.402       .  A
C1105      H1115   1.083       .  S
C1106      C1111   1.487       .  S
C1106      C1107   1.407       .  A
C1107      C1108   1.396       .  A
C1107      F1112   1.357       .  S
C1108      C1109   1.404       .  A
C1108      H1113   1.083       .  S
C1109      C1110   1.410       .  A
C1110      F1114   1.358       .  S
C1111      C1116   1.408       .  A
C1111      C1120   1.404       .  A
C1116      C1117   1.401       .  A
C1116      F1121   1.357       .  S
C1117      C1118   1.406       .  A
C1117      H1122   1.083       .  S
C1118      C1119   1.410       .  A
C1119      C1120   1.397       .  A
C1119      F1123   1.358       .  S
C1120      H1124   1.083       .  S
C1125      C1126   1.406       .  A
C1125      C1130   1.402       .  A
C1125      H1135   1.083       .  S
C1126      C1131   1.486       .  S
C1126      C1127   1.405       .  A
C1127      C1128   1.397       .  A
C1127      F1132   1.358       .  S
C1128      C1129   1.407       .  A
C1128      H1133   1.083       .  S
C1129      C1130   1.409       .  A
C1130      F1134   1.357       .  S
C1131      C1136   1.405       .  A
C1131      C1140   1.404       .  A
C1136      C1137   1.401       .  A
C1136      F1141   1.358       .  S
C1137      C1138   1.409       .  A
C1137      H1142   1.083       .  S
C1138      C1139   1.410       .  A
C1139      C1140   1.399       .  A
C1139      F1143   1.357       .  S
C1140      H1144   1.083       .  S
C1145      C1146   1.405       .  A
C1145      C1150   1.401       .  A
C1145      H1155   1.083       .  S
C1146      C1151   1.489       .  S
C1146      C1147   1.409       .  A
C1147      C1148   1.399       .  A
C1147      F1152   1.358       .  S
C1148      C1149   1.405       .  A
C1148      H1153   1.083       .  S
C1149      C1150   1.409       .  A
C1150      F1154   1.357       .  S
C1151      C1156   1.408       .  A
C1151      C1160   1.405       .  A
C1156      C1157   1.399       .  A
C1156      F1161   1.357       .  S
C1157      C1158   1.406       .  A
C1157      H1162   1.083       .  S
C1158      C1159   1.411       .  A
C1159      C1160   1.400       .  A
C1159      F1163   1.358       .  S
C1160      H1164   1.083       .  S
C1165      C1166   1.405       .  A
C1165      C1170   1.398       .  A
C1165      H1175   1.083       .  S
C1166      C1171   1.488       .  S
C1166      C1167   1.409       .  A
C1167      C1168   1.399       .  A
C1167      F1172   1.358       .  S
C1168      C1169   1.405       .  A
C1168      H1173   1.084       .  S
C1169      C1170   1.408       .  A
C1170      F1174   1.357       .  S
C1171      C1176   1.409       .  A
C1171      C1180   1.405       .  A
C1176      C1177   1.399       .  A
C1176      F1181   1.357       .  S
C1177      C1178   1.405       .  A
C1177      H1182   1.083       .  S
C1178      C1179   1.409       .  A
C1179      C1180   1.397       .  A
C1179      F1183   1.358       .  S
C1180      H1184   1.083       .  S
C1185      C1186   1.406       .  A
C1185      C1190   1.399       .  A
C1185      H1195   1.083       .  S
C1186      C1191   1.487       .  S
C1186      C1187   1.406       .  A
C1187      C1188   1.399       .  A
C1187      F1192   1.358       .  S
C1188      C1189   1.408       .  A
C1188      H1193   1.083       .  S
C1189      C1190   1.408       .  A
C1190      F1194   1.357       .  S
C1191      C1196   1.407       .  A
C1191      C1200   1.405       .  A
C1196      C1197   1.399       .  A
C1196      F1201   1.357       .  S
C1197      C1198   1.406       .  A
C1197      H1202   1.083       .  S
C1198      C1199   1.411       .  A
C1199      C1200   1.401       .  A
C1199      F1203   1.358       .  S
C1200      H1204   1.083       .  S
C1205      C1206   1.401       .  A
C1205      C1210   1.394       .  A
C1205      H1215   1.083       .  S
C1206      C1211   1.477       .  S
C1206      C1207   1.406       .  A
C1207      C1208   1.396       .  A
C1207      F1212   1.358       .  S
C1208      C1209   1.406       .  A
C1208      H1213   1.083       .  S
C1209      C1210   1.410       .  A
C1210      F1214   1.357       .  S
C1211      C1216   1.406       .  A
C1211      C1220   1.401       .  A
C1216      C1217   1.397       .  A
C1216      F1221   1.358       .  S
C1217      C1218   1.406       .  A
C1217      H1222   1.083       .  S
C1218      C1219   1.410       .  A
C1219      C1220   1.393       .  A
C1219      F1223   1.357       .  S
C1220      H1224   1.083       .  S
C1225      C1226   1.404       .  A
C1225      C1230   1.400       .  A
C1225      H1235   1.083       .  S
C1226      C1231   1.482       .  S
C1226      C1227   1.405       .  A
C1227      C1228   1.397       .  A
C1227      F1232   1.358       .  S
C1228      C1229   1.407       .  A
C1228      H1233   1.083       .  S
C1229      C1230   1.410       .  A
C1230      F1234   1.357       .  S
C1231      C1236   1.404       .  A
C1231      C1240   1.405       .  A
C1236      C1237   1.397       .  A
C1236      F1241   1.358       .  S
C1237      C1238   1.408       .  A
C1237      H1242   1.083       .  S
C1238      C1239   1.410       .  A
C1239      C1240   1.401       .  A
C1239      F1243   1.357       .  S
C1240      H1244   1.083       .  S
C1245      C1246   1.407       .  A
C1245      C1250   1.398       .  A
C1245      H1255   1.083       .  S
C1246      C1251   1.486       .  S
C1246      C1247   1.406       .  A
C1247      C1248   1.397       .  A
C1247      F1252   1.358       .  S
C1248      C1249   1.408       .  A
C1248      H1253   1.083       .  S
C1249      C1250   1.407       .  A
C1250      F1254   1.357       .  S
C1251      C1256   1.406       .  A
C1251      C1260   1.407       .  A
C1256      C1257   1.393       .  A
C1256      F1261   1.358       .  S
C1257      C1258   1.405       .  A
C1257      H1262   1.083       .  S
C1258      C1259   1.409       .  A
C1259      C1260   1.402       .  A
C1259      F1263   1.357       .  S
C1260      H1264   1.083       .  S
C1265      C1266   1.404       .  A
C1265      C1270   1.397       .  A
C1265      H1275   1.083       .  S
C1266      C1271   1.488       .  S
C1266      C1267   1.409       .  A
C1267      C1268   1.400       .  A
C1267      F1272   1.357       .  S
C1268      C1269   1.405       .  A
C1268      H1273   1.083       .  S
C1269      C1270   1.410       .  A
C1270      F1274   1.358       .  S
C1271      C1276   1.409       .  A
C1271      C1280   1.404       .  A
C1276      C1277   1.400       .  A
C1276      F1281   1.358       .  S
C1277      C1278   1.406       .  A
C1277      H1282   1.083       .  S
C1278      C1279   1.409       .  A
C1279      C1280   1.397       .  A
C1279      F1283   1.357       .  S
C1280      H1284   1.083       .  S
C1285      C1286   1.404       .  A
C1285      C1290   1.400       .  A
C1285      H1295   1.083       .  S
C1286      C1291   1.483   1_565  S
C1286      C1287   1.405       .  A
C1287      C1288   1.397       .  A
C1287      F1292   1.357       .  S
C1288      C1289   1.407       .  A
C1288      H1293   1.083       .  S
C1289      C1290   1.412       .  A
C1290      F1294   1.358       .  S
C1291      C1296   1.406       .  A
C1291      C1300   1.404       .  A
C1296      C1297   1.400       .  A
C1296      F1301   1.357       .  S
C1297      C1298   1.407       .  A
C1297      H1302   1.083       .  S
C1298      C1299   1.408       .  A
C1299      C1300   1.396       .  A
C1299      F1303   1.357       .  S
C1300      H1304   1.083       .  S
C1305      C1306   1.401       .  A
C1305      C1310   1.396       .  A
C1305      H1315   1.084       .  S
C1306      C1311   1.471       .  S
C1306      C1307   1.402       .  A
C1307      C1308   1.394       .  A
C1307      F1312   1.358       .  S
C1308      C1309   1.406       .  A
C1308      H1313   1.083       .  S
C1309      C1310   1.411       .  A
C1310      F1314   1.358       .  S
C1311      C1316   1.403       .  A
C1311      C1320   1.402       .  A
C1316      C1317   1.395       .  A
C1316      F1321   1.358       .  S
C1317      C1318   1.405       .  A
C1317      H1322   1.083       .  S
C1318      C1319   1.407       .  A
C1319      C1320   1.394       .  A
C1319      F1323   1.358       .  S
C1320      H1324   1.084       .  S
C1325      C1326   1.403       .  A
C1325      C1330   1.397       .  A
C1325      H1335   1.083       .  S
C1326      C1331   1.479       .  S
C1326      C1327   1.405       .  A
C1327      C1328   1.394       .  A
C1327      F1332   1.357       .  S
C1328      C1329   1.405       .  A
C1328      H1333   1.083       .  S
C1329      C1330   1.411       .  A
C1330      F1334   1.358       .  S
C1331      C1336   1.405       .  A
C1331      C1340   1.403       .  A
C1336      C1337   1.398       .  A
C1336      F1341   1.358       .  S
C1337      C1338   1.407       .  A
C1337      H1342   1.083       .  S
C1338      C1339   1.410       .  A
C1339      C1340   1.394       .  A
C1339      F1343   1.357       .  S
C1340      H1344   1.083       .  S
C1345      C1346   1.405       .  A
C1345      C1350   1.399       .  A
C1345      H1355   1.083       .  S
C1346      C1351   1.484   1_655  S
C1346      C1347   1.407       .  A
C1347      C1348   1.397       .  A
C1347      F1352   1.357       .  S
C1348      C1349   1.405       .  A
C1348      H1353   1.083       .  S
C1349      C1350   1.409       .  A
C1350      F1354   1.358       .  S
C1351      C1356   1.406       .  A
C1351      C1360   1.404       .  A
C1356      C1357   1.397       .  A
C1356      F1361   1.357       .  S
C1357      C1358   1.406       .  A
C1357      H1362   1.083       .  S
C1358      C1359   1.411       .  A
C1359      C1360   1.399       .  A
C1359      F1363   1.358       .  S
C1360      H1364   1.083       .  S
C1365      C1366   1.402       .  A
C1365      C1370   1.397       .  A
C1365      H1375   1.077       .  S
C1366      C1371   1.479       .  S
C1366      C1367   1.405       .  A
C1367      C1368   1.399       .  A
C1367      F1372   1.358       .  S
C1368      C1369   1.408       .  A
C1368      H1373   1.074       .  S
C1369      C1370   1.411       .  A
C1370      F1374   1.357       .  S
C1371      C1376   1.405       .  A
C1371      C1380   1.402       .  A
C1376      C1377   1.398       .  A
C1376      F1381   1.358       .  S
C1377      C1378   1.407       .  A
C1377      H1382   1.080       .  S
C1378      C1379   1.410       .  A
C1379      C1380   1.397       .  A
C1379      F1383   1.357       .  S
C1380      H1384   1.079       .  S
C1385      C1386   1.405       .  A
C1385      C1390   1.399       .  A
C1385      H1395   1.083       .  S
C1386      C1391   1.484       .  S
C1386      C1387   1.406       .  A
C1387      C1388   1.396       .  A
C1387      F1392   1.357       .  S
C1388      C1389   1.405       .  A
C1388      H1393   1.083       .  S
C1389      C1390   1.410       .  A
C1390      F1394   1.358       .  S
C1391      C1396   1.406       .  A
C1391      C1400   1.404       .  A
C1396      C1397   1.399       .  A
C1396      F1401   1.357       .  S
C1397      C1398   1.408       .  A
C1397      H1402   1.083       .  S
C1398      C1399   1.410       .  A
C1399      C1400   1.398       .  A
C1399      F1403   1.357       .  S
C1400      H1404   1.083       .  S
C1405      C1406   1.405       .  A
C1405      C1410   1.398       .  A
C1405      H1415   1.083       .  S
C1406      C1411   1.482   1_655  S
C1406      C1407   1.406       .  A
C1407      C1408   1.394       .  A
C1407      F1412   1.358       .  S
C1408      C1409   1.405       .  A
C1408      H1413   1.083       .  S
C1409      C1410   1.407       .  A
C1410      F1414   1.357       .  S
C1411      C1416   1.406       .  A
C1411      C1420   1.404       .  A
C1416      C1417   1.395       .  A
C1416      F1421   1.357       .  S
C1417      C1418   1.405       .  A
C1417      H1422   1.083       .  S
C1418      C1419   1.410       .  A
C1419      C1420   1.398       .  A
C1419      F1423   1.358       .  S
C1420      H1424   1.083       .  S
C1425      C1426   1.408       .  A
C1425      C1430   1.405       .  A
C1425      H1435   1.083       .  S
C1426      C1431   1.493   1_545  S
C1426      C1427   1.407       .  A
C1427      C1428   1.396       .  A
C1427      F1432   1.357       .  S
C1428      C1429   1.407       .  A
C1428      H1433   1.083       .  S
C1429      C1430   1.410       .  A
C1430      F1434   1.357       .  S
C1431      C1436   1.407       .  A
C1431      C1440   1.407       .  A
C1436      C1437   1.400       .  A
C1436      F1441   1.357       .  S
C1437      C1438   1.408       .  A
C1437      H1442   1.083       .  S
C1438      C1439   1.410       .  A
C1439      C1440   1.401       .  A
C1439      F1443   1.357       .  S
C1440      H1444   1.083       .  S
C1445      C1446   1.402       .  A
C1445      C1450   1.396       .  A
C1445      H1455   1.083       .  S
C1446      C1451   1.483       .  S
C1446      C1447   1.407       .  A
C1447      C1448   1.401       .  A
C1447      F1452   1.357       .  S
C1448      C1449   1.407       .  A
C1448      H1453   1.083       .  S
C1449      C1450   1.411       .  A
C1450      F1454   1.357       .  S
C1451      C1456   1.407       .  A
C1451      C1460   1.403       .  A
C1456      C1457   1.399       .  A
C1456      F1461   1.358       .  S
C1457      C1458   1.406       .  A
C1457      H1462   1.083       .  S
C1458      C1459   1.411       .  A
C1459      C1460   1.399       .  A
C1459      F1463   1.357       .  S
C1460      H1464   1.083       .  S
C1465      C1466   1.404       .  A
C1465      C1470   1.399       .  A
C1465      H1475   1.083       .  S
C1466      C1471   1.481       .  S
C1466      C1467   1.404       .  A
C1467      C1468   1.395       .  A
C1467      F1472   1.357       .  S
C1468      C1469   1.407       .  A
C1468      H1473   1.083       .  S
C1469      C1470   1.410       .  A
C1470      F1474   1.358       .  S
C1471      C1476   1.405       .  A
C1471      C1480   1.404       .  A
C1476      C1477   1.397       .  A
C1476      F1481   1.357       .  S
C1477      C1478   1.406       .  A
C1477      H1482   1.083       .  S
C1478      C1479   1.410       .  A
C1479      C1480   1.398       .  A
C1479      F1483   1.358       .  S
C1480      H1484   1.083       .  S
C1485      C1486   1.405       .  A
C1485      C1490   1.397       .  A
C1485      H1495   1.074       .  S
C1486      C1491   1.477       .  S
C1486      C1487   1.404       .  A
C1487      C1488   1.397       .  A
C1487      F1492   1.358       .  S
C1488      C1489   1.406       .  A
C1488      H1493   1.073       .  S
C1489      C1490   1.407       .  A
C1490      F1494   1.358       .  S
C1491      C1496   1.404       .  A
C1491      C1500   1.404       .  A
C1496      C1497   1.395       .  A
C1496      F1501   1.358       .  S
C1497      C1498   1.406       .  A
C1497      H1502   1.079       .  S
C1498      C1499   1.409       .  A
C1499      C1500   1.398       .  A
C1499      F1503   1.358       .  S
C1500      H1504   1.077       .  S
C1505      C1506   1.400       .  A
C1505      C1510   1.395       .  A
C1505      H1515   1.084       .  S
C1506      C1511   1.473   1_554  S
C1506      C1507   1.404       .  A
C1507      C1508   1.398       .  A
C1507      F1512   1.357       .  S
C1508      C1509   1.405       .  A
C1508      H1513   1.083       .  S
C1509      C1510   1.411       .  A
C1510      F1514   1.358       .  S
C1511      C1516   1.404       .  A
C1511      C1520   1.399       .  A
C1516      C1517   1.400       .  A
C1516      F1521   1.357       .  S
C1517      C1518   1.407       .  A
C1517      H1522   1.083       .  S
C1518      C1519   1.412       .  A
C1519      C1520   1.394       .  A
C1519      F1523   1.358       .  S
C1520      H1524   1.084       .  S
C1525      C1526   1.405       .  A
C1525      C1530   1.399       .  A
C1525      H1535   1.083       .  S
C1526      C1531   1.485   1_556  S
C1526      C1527   1.407       .  A
C1527      C1528   1.398       .  A
C1527      F1532   1.358       .  S
C1528      C1529   1.406       .  A
C1528      H1533   1.083       .  S
C1529      C1530   1.408       .  A
C1530      F1534   1.357       .  S
C1531      C1536   1.408       .  A
C1531      C1540   1.404       .  A
C1536      C1537   1.401       .  A
C1536      F1541   1.357       .  S
C1537      C1538   1.403       .  A
C1537      H1542   1.083       .  S
C1538      C1539   1.408       .  A
C1539      C1540   1.398       .  A
C1539      F1543   1.358       .  S
C1540      H1544   1.083       .  S
C1545      C1546   1.404       .  A
C1545      C1550   1.397       .  A
C1545      H1555   1.083       .  S
C1546      C1551   1.480       .  S
C1546      C1547   1.406       .  A
C1547      C1548   1.397       .  A
C1547      F1552   1.358       .  S
C1548      C1549   1.405       .  A
C1548      H1553   1.084       .  S
C1549      C1550   1.406       .  A
C1550      F1554   1.358       .  S
C1551      C1556   1.406       .  A
C1551      C1560   1.402       .  A
C1556      C1557   1.397       .  A
C1556      F1561   1.357       .  S
C1557      C1558   1.404       .  A
C1557      H1562   1.083       .  S
C1558      C1559   1.412       .  A
C1559      C1560   1.398       .  A
C1559      F1563   1.358       .  S
C1560      H1564   1.083       .  S
C1565      C1566   1.405       .  A
C1565      C1570   1.399       .  A
C1565      H1575   1.083       .  S
C1566      C1571   1.483       .  S
C1566      C1567   1.406       .  A
C1567      C1568   1.393       .  A
C1567      F1572   1.358       .  S
C1568      C1569   1.405       .  A
C1568      H1573   1.083       .  S
C1569      C1570   1.409       .  A
C1570      F1574   1.357       .  S
C1571      C1576   1.407       .  A
C1571      C1580   1.404       .  A
C1576      C1577   1.396       .  A
C1576      F1581   1.358       .  S
C1577      C1578   1.406       .  A
C1577      H1582   1.083       .  S
C1578      C1579   1.409       .  A
C1579      C1580   1.396       .  A
C1579      F1583   1.357       .  S
C1580      H1584   1.083       .  S
C1585      C1586   1.402       .  A
C1585      C1590   1.398       .  A
C1585      H1595   1.083       .  S
C1586      C1591   1.482       .  S
C1586      C1587   1.406       .  A
C1587      C1588   1.399       .  A
C1587      F1592   1.358       .  S
C1588      C1589   1.408       .  A
C1588      H1593   1.083       .  S
C1589      C1590   1.411       .  A
C1590      F1594   1.357       .  S
C1591      C1596   1.406       .  A
C1591      C1600   1.402       .  A
C1596      C1597   1.399       .  A
C1596      F1601   1.357       .  S
C1597      C1598   1.406       .  A
C1597      H1602   1.083       .  S
C1598      C1599   1.412       .  A
C1599      C1600   1.398       .  A
C1599      F1603   1.358       .  S
C1600      H1604   1.083       .  S
C1605      C1606   1.406       .  A
C1605      C1610   1.400       .  A
C1605      H1615   1.083       .  S
C1606      C1611   1.488       .  S
C1606      C1607   1.407       .  A
C1607      C1608   1.398       .  A
C1607      F1612   1.357       .  S
C1608      C1609   1.406       .  A
C1608      H1613   1.083       .  S
C1609      C1610   1.410       .  A
C1610      F1614   1.358       .  S
C1611      C1616   1.407       .  A
C1611      C1620   1.406       .  A
C1616      C1617   1.399       .  A
C1616      F1621   1.358       .  S
C1617      C1618   1.408       .  A
C1617      H1622   1.083       .  S
C1618      C1619   1.409       .  A
C1619      C1620   1.399       .  A
C1619      F1623   1.357       .  S
C1620      H1624   1.083       .  S
C1625      C1626   1.403       .  A
C1625      C1630   1.398       .  A
C1625      H1635   1.083       .  S
C1626      C1631   1.477       .  S
C1626      C1627   1.404       .  A
C1627      C1628   1.393       .  A
C1627      F1632   1.358       .  S
C1628      C1629   1.406       .  A
C1628      H1633   1.083       .  S
C1629      C1630   1.410       .  A
C1630      F1634   1.357       .  S
C1631      C1636   1.404       .  A
C1631      C1640   1.403       .  A
C1636      C1637   1.395       .  A
C1636      F1641   1.358       .  S
C1637      C1638   1.407       .  A
C1637      H1642   1.083       .  S
C1638      C1639   1.408       .  A
C1639      C1640   1.396       .  A
C1639      F1643   1.358       .  S
C1640      H1644   1.083       .  S
C1645      C1646   1.405       .  A
C1645      C1650   1.401       .  A
C1645      H1655   1.083       .  S
C1646      C1651   1.482       .  S
C1646      C1647   1.405       .  A
C1647      C1648   1.394       .  A
C1647      F1652   1.358       .  S
C1648      C1649   1.404       .  A
C1648      H1653   1.084       .  S
C1649      C1650   1.409       .  A
C1650      F1654   1.357       .  S
C1651      C1656   1.405       .  A
C1651      C1660   1.404       .  A
C1656      C1657   1.398       .  A
C1656      F1661   1.357       .  S
C1657      C1658   1.407       .  A
C1657      H1662   1.083       .  S
C1658      C1659   1.410       .  A
C1659      C1660   1.396       .  A
C1659      F1663   1.358       .  S
C1660      H1664   1.083       .  S
C1665      C1666   1.407       .  A
C1665      C1670   1.399       .  A
C1665      H1675   1.083       .  S
C1666      C1671   1.492       .  S
C1666      C1667   1.410       .  A
C1667      C1668   1.399       .  A
C1667      F1672   1.357       .  S
C1668      C1669   1.405       .  A
C1668      H1673   1.084       .  S
C1669      C1670   1.407       .  A
C1670      F1674   1.357       .  S
C1671      C1676   1.411       .  A
C1671      C1680   1.407       .  A
C1676      C1677   1.399       .  A
C1676      F1681   1.357       .  S
C1677      C1678   1.404       .  A
C1677      H1682   1.083       .  S
C1678      C1679   1.408       .  A
C1679      C1680   1.399       .  A
C1679      F1683   1.358       .  S
C1680      H1684   1.083       .  S
C1685      C1686   1.404       .  A
C1685      C1690   1.397       .  A
C1685      H1695   1.083       .  S
C1686      C1691   1.484       .  S
C1686      C1687   1.406       .  A
C1687      C1688   1.400       .  A
C1687      F1692   1.358       .  S
C1688      C1689   1.409       .  A
C1688      H1693   1.083       .  S
C1689      C1690   1.409       .  A
C1690      F1694   1.357       .  S
C1691      C1696   1.405       .  A
C1691      C1700   1.405       .  A
C1696      C1697   1.396       .  A
C1696      F1701   1.358       .  S
C1697      C1698   1.406       .  A
C1697      H1702   1.083       .  S
C1698      C1699   1.411       .  A
C1699      C1700   1.401       .  A
C1699      F1703   1.358       .  S
C1700      H1704   1.083       .  S
C1705      C1706   1.404       .  A
C1705      C1710   1.399       .  A
C1705      H1715   1.083       .  S
C1706      C1711   1.479       .  S
C1706      C1707   1.405       .  A
C1707      C1708   1.395       .  A
C1707      F1712   1.358       .  S
C1708      C1709   1.406       .  A
C1708      H1713   1.083       .  S
C1709      C1710   1.408       .  A
C1710      F1714   1.357       .  S
C1711      C1716   1.404       .  A
C1711      C1720   1.404       .  A
C1716      C1717   1.396       .  A
C1716      F1721   1.358       .  S
C1717      C1718   1.408       .  A
C1717      H1722   1.083       .  S
C1718      C1719   1.409       .  A
C1719      C1720   1.398       .  A
C1719      F1723   1.357       .  S
C1720      H1724   1.083       .  S
C1725      C1726   1.403       .  A
C1725      C1730   1.394       .  A
C1725      H1735   1.083       .  S
C1726      C1731   1.487       .  S
C1726      C1727   1.410       .  A
C1727      C1728   1.402       .  A
C1727      F1732   1.357       .  S
C1728      C1729   1.405       .  A
C1728      H1733   1.083       .  S
C1729      C1730   1.408       .  A
C1730      F1734   1.358       .  S
C1731      C1736   1.409       .  A
C1731      C1740   1.404       .  A
C1736      C1737   1.398       .  A
C1736      F1741   1.358       .  S
C1737      C1738   1.405       .  A
C1737      H1742   1.083       .  S
C1738      C1739   1.410       .  A
C1739      C1740   1.397       .  A
C1739      F1743   1.357       .  S
C1740      H1744   1.083       .  S
C1745      C1746   1.406       .  A
C1745      C1750   1.397       .  A
C1745      H1755   1.083       .  S
C1746      C1751   1.485       .  S
C1746      C1747   1.408       .  A
C1747      C1748   1.398       .  A
C1747      F1752   1.357       .  S
C1748      C1749   1.403       .  A
C1748      H1753   1.084       .  S
C1749      C1750   1.405       .  A
C1750      F1754   1.358       .  S
C1751      C1756   1.409       .  A
C1751      C1760   1.406       .  A
C1756      C1757   1.397       .  A
C1756      F1761   1.357       .  S
C1757      C1758   1.402       .  A
C1757      H1762   1.084       .  S
C1758      C1759   1.405       .  A
C1759      C1760   1.397       .  A
C1759      F1763   1.358       .  S
C1760      H1764   1.083       .  S
C1765      C1766   1.403       .  A
C1765      C1770   1.397       .  A
C1765      H1775   1.083       .  S
C1766      C1771   1.479   1_556  S
C1766      C1767   1.405       .  A
C1767      C1768   1.396       .  A
C1767      F1772   1.358       .  S
C1768      C1769   1.406       .  A
C1768      H1773   1.083       .  S
C1769      C1770   1.411       .  A
C1770      F1774   1.358       .  S
C1771      C1776   1.406       .  A
C1771      C1780   1.403       .  A
C1776      C1777   1.398       .  A
C1776      F1781   1.357       .  S
C1777      C1778   1.405       .  A
C1777      H1782   1.083       .  S
C1778      C1779   1.408       .  A
C1779      C1780   1.394       .  A
C1779      F1783   1.358       .  S
C1780      H1784   1.083       .  S
C1785      C1786   1.403       .  A
C1785      C1790   1.396       .  A
C1785      H1795   1.083       .  S
C1786      C1791   1.480       .  S
C1786      C1787   1.405       .  A
C1787      C1788   1.397       .  A
C1787      F1792   1.358       .  S
C1788      C1789   1.408       .  A
C1788      H1793   1.083       .  S
C1789      C1790   1.409       .  A
C1790      F1794   1.357       .  S
C1791      C1796   1.404       .  A
C1791      C1800   1.404       .  A
C1796      C1797   1.395       .  A
C1796      F1801   1.357       .  S
C1797      C1798   1.406       .  A
C1797      H1802   1.083       .  S
C1798      C1799   1.410       .  A
C1799      C1800   1.398       .  A
C1799      F1803   1.358       .  S
C1800      H1804   1.083       .  S
C1805      C1806   1.405       .  A
C1805      C1810   1.402       .  A
C1805      H1815   1.083       .  S
C1806      C1811   1.487   1_565  S
C1806      C1807   1.407       .  A
C1807      C1808   1.397       .  A
C1807      F1812   1.358       .  S
C1808      C1809   1.406       .  A
C1808      H1813   1.083       .  S
C1809      C1810   1.411       .  A
C1810      F1814   1.358       .  S
C1811      C1816   1.407       .  A
C1811      C1820   1.404       .  A
C1816      C1817   1.401       .  A
C1816      F1821   1.357       .  S
C1817      C1818   1.408       .  A
C1817      H1822   1.083       .  S
C1818      C1819   1.411       .  A
C1819      C1820   1.399       .  A
C1819      F1823   1.357       .  S
C1820      H1824   1.083       .  S
C1825      C1826   1.404       .  A
C1825      C1830   1.401       .  A
C1825      H1835   1.083       .  S
C1826      C1831   1.482   1_556  S
C1826      C1827   1.404       .  A
C1827      C1828   1.396       .  A
C1827      F1832   1.357       .  S
C1828      C1829   1.406       .  A
C1828      H1833   1.083       .  S
C1829      C1830   1.411       .  A
C1830      F1834   1.358       .  S
C1831      C1836   1.404       .  A
C1831      C1840   1.405       .  A
C1836      C1837   1.397       .  A
C1836      F1841   1.358       .  S
C1837      C1838   1.408       .  A
C1837      H1842   1.083       .  S
C1838      C1839   1.408       .  A
C1839      C1840   1.401       .  A
C1839      F1843   1.357       .  S
C1840      H1844   1.083       .  S
C1845      C1846   1.403       .  A
C1845      C1850   1.398       .  A
C1845      H1855   1.083       .  S
C1846      C1851   1.484       .  S
C1846      C1847   1.407       .  A
C1847      C1848   1.398       .  A
C1847      F1852   1.357       .  S
C1848      C1849   1.406       .  A
C1848      H1853   1.083       .  S
C1849      C1850   1.411       .  A
C1850      F1854   1.358       .  S
C1851      C1856   1.406       .  A
C1851      C1860   1.404       .  A
C1856      C1857   1.398       .  A
C1856      F1861   1.358       .  S
C1857      C1858   1.408       .  A
C1857      H1862   1.083       .  S
C1858      C1859   1.409       .  A
C1859      C1860   1.397       .  A
C1859      F1863   1.357       .  S
C1860      H1864   1.083       .  S
C1865      C1866   1.403       .  A
C1865      C1870   1.399       .  A
C1865      H1875   1.083       .  S
C1866      C1871   1.477       .  S
C1866      C1867   1.405       .  A
C1867      C1868   1.397       .  A
C1867      F1872   1.358       .  S
C1868      C1869   1.405       .  A
C1868      H1873   1.084       .  S
C1869      C1870   1.408       .  A
C1870      F1874   1.357       .  S
C1871      C1876   1.404       .  A
C1871      C1880   1.401       .  A
C1876      C1877   1.399       .  A
C1876      F1881   1.358       .  S
C1877      C1878   1.408       .  A
C1877      H1882   1.083       .  S
C1878      C1879   1.411       .  A
C1879      C1880   1.396       .  A
C1879      F1883   1.357       .  S
C1880      H1884   1.084       .  S
C1885      C1886   1.405       .  A
C1885      C1890   1.398       .  A
C1885      H1895   1.083       .  S
C1886      C1891   1.491       .  S
C1886      C1887   1.409       .  A
C1887      C1888   1.400       .  A
C1887      F1892   1.357       .  S
C1888      C1889   1.406       .  A
C1888      H1893   1.083       .  S
C1889      C1890   1.411       .  A
C1890      F1894   1.358       .  S
C1891      C1896   1.409       .  A
C1891      C1900   1.405       .  A
C1896      C1897   1.400       .  A
C1896      F1901   1.357       .  S
C1897      C1898   1.405       .  A
C1897      H1902   1.083       .  S
C1898      C1899   1.411       .  A
C1899      C1900   1.398       .  A
C1899      F1903   1.358       .  S
C1900      H1904   1.083       .  S
C1905      C1906   1.407       .  A
C1905      C1910   1.401       .  A
C1905      H1915   1.083       .  S
C1906      C1911   1.492   1_565  S
C1906      C1907   1.409       .  A
C1907      C1908   1.397       .  A
C1907      F1912   1.357       .  S
C1908      C1909   1.406       .  A
C1908      H1913   1.083       .  S
C1909      C1910   1.410       .  A
C1910      F1914   1.357       .  S
C1911      C1916   1.409       .  A
C1911      C1920   1.407       .  A
C1916      C1917   1.399       .  A
C1916      F1921   1.357       .  S
C1917      C1918   1.406       .  A
C1917      H1922   1.083       .  S
C1918      C1919   1.410       .  A
C1919      C1920   1.400       .  A
C1919      F1923   1.358       .  S
C1920      H1924   1.083       .  S
C1925      C1926   1.406       .  A
C1925      C1930   1.401       .  A
C1925      H1935   1.083       .  S
C1926      C1931   1.491       .  S
C1926      C1927   1.408       .  A
C1927      C1928   1.398       .  A
C1927      F1932   1.357       .  S
C1928      C1929   1.407       .  A
C1928      H1933   1.083       .  S
C1929      C1930   1.410       .  A
C1930      F1934   1.357       .  S
C1931      C1936   1.408       .  A
C1931      C1940   1.406       .  A
C1936      C1937   1.400       .  A
C1936      F1941   1.358       .  S
C1937      C1938   1.408       .  A
C1937      H1942   1.083       .  S
C1938      C1939   1.409       .  A
C1939      C1940   1.399       .  A
C1939      F1943   1.357       .  S
C1940      H1944   1.083       .  S
C1945      C1946   1.404       .  A
C1945      C1950   1.398       .  A
C1945      H1955   1.083       .  S
C1946      C1951   1.487       .  S
C1946      C1947   1.407       .  A
C1947      C1948   1.400       .  A
C1947      F1952   1.358       .  S
C1948      C1949   1.408       .  A
C1948      H1953   1.083       .  S
C1949      C1950   1.410       .  A
C1950      F1954   1.357       .  S
C1951      C1956   1.407       .  A
C1951      C1960   1.405       .  A
C1956      C1957   1.398       .  A
C1956      F1961   1.357       .  S
C1957      C1958   1.406       .  A
C1957      H1962   1.083       .  S
C1958      C1959   1.410       .  A
C1959      C1960   1.399       .  A
C1959      F1963   1.358       .  S
C1960      H1964   1.083       .  S
C1965      C1966   1.405       .  A
C1965      C1970   1.399       .  A
C1965      H1975   1.083       .  S
C1966      C1971   1.485       .  S
C1966      C1967   1.408       .  A
C1967      C1968   1.397       .  A
C1967      F1972   1.358       .  S
C1968      C1969   1.404       .  A
C1968      H1973   1.084       .  S
C1969      C1970   1.408       .  A
C1970      F1974   1.358       .  S
C1971      C1976   1.408       .  A
C1971      C1980   1.403       .  A
C1976      C1977   1.400       .  A
C1976      F1981   1.358       .  S
C1977      C1978   1.406       .  A
C1977      H1982   1.083       .  S
C1978      C1979   1.410       .  A
C1979      C1980   1.397       .  A
C1979      F1983   1.357       .  S
C1980      H1984   1.083       .  S
C1985      C1986   1.405       .  A
C1985      C1990   1.399       .  A
C1985      H1995   1.083       .  S
C1986      C1991   1.483       .  S
C1986      C1987   1.405       .  A
C1987      C1988   1.396       .  A
C1987      F1992   1.358       .  S
C1988      C1989   1.406       .  A
C1988      H1993   1.083       .  S
C1989      C1990   1.409       .  A
C1990      F1994   1.357       .  S
C1991      C1996   1.405       .  A
C1991      C2000   1.404       .  A
C1996      C1997   1.397       .  A
C1996      F2001   1.358       .  S
C1997      C1998   1.408       .  A
C1997      H2002   1.083       .  S
C1998      C1999   1.410       .  A
C1999      C2000   1.400       .  A
C1999      F2003   1.357       .  S
C2000      H2004   1.083       .  S
C2005      C2006   1.402       .  A
C2005      C2010   1.394       .  A
C2005      H2015   1.083       .  S
C2006      C2011   1.482       .  S
C2006      C2007   1.407       .  A
C2007      C2008   1.401       .  A
C2007      F2012   1.358       .  S
C2008      C2009   1.408       .  A
C2008      H2013   1.083       .  S
C2009      C2010   1.409       .  A
C2010      F2014   1.357       .  S
C2011      C2016   1.407       .  A
C2011      C2020   1.402       .  A
C2016      C2017   1.398       .  A
C2016      F2021   1.357       .  S
C2017      C2018   1.404       .  A
C2017      H2022   1.083       .  S
C2018      C2019   1.412       .  A
C2019      C2020   1.397       .  A
C2019      F2023   1.358       .  S
C2020      H2024   1.083       .  S
C2025      C2026   1.402       .  A
C2025      C2030   1.397       .  A
C2025      H2035   1.084       .  S
C2026      C2031   1.481       .  S
C2026      C2027   1.405       .  A
C2027      C2028   1.400       .  A
C2027      F2032   1.357       .  S
C2028      C2029   1.407       .  A
C2028      H2033   1.083       .  S
C2029      C2030   1.411       .  A
C2030      F2034   1.358       .  S
C2031      C2036   1.404       .  A
C2031      C2040   1.403       .  A
C2036      C2037   1.397       .  A
C2036      F2041   1.357       .  S
C2037      C2038   1.407       .  A
C2037      H2042   1.083       .  S
C2038      C2039   1.411       .  A
C2039      C2040   1.399       .  A
C2039      F2043   1.358       .  S
C2040      H2044   1.083       .  S
C2045      C2046   1.403       .  A
C2045      C2050   1.399       .  A
C2045      H2055   1.083       .  S
C2046      C2051   1.479   1_556  S
C2046      C2047   1.404       .  A
C2047      C2048   1.397       .  A
C2047      F2052   1.358       .  S
C2048      C2049   1.408       .  A
C2048      H2053   1.083       .  S
C2049      C2050   1.410       .  A
C2050      F2054   1.357       .  S
C2051      C2056   1.404       .  A
C2051      C2060   1.403       .  A
C2056      C2057   1.396       .  A
C2056      F2061   1.358       .  S
C2057      C2058   1.407       .  A
C2057      H2062   1.083       .  S
C2058      C2059   1.409       .  A
C2059      C2060   1.400       .  A
C2059      F2063   1.357       .  S
C2060      H2064   1.083       .  S
C2065      C2066   1.403       .  A
C2065      C2070   1.395       .  A
C2065      H2075   1.083       .  S
C2066      C2071   1.482       .  S
C2066      C2067   1.409       .  A
C2067      C2068   1.399       .  A
C2067      F2072   1.358       .  S
C2068      C2069   1.404       .  A
C2068      H2073   1.084       .  S
C2069      C2070   1.406       .  A
C2070      F2074   1.357       .  S
C2071      C2076   1.408       .  A
C2071      C2080   1.404       .  A
C2076      C2077   1.396       .  A
C2076      F2081   1.357       .  S
C2077      C2078   1.403       .  A
C2077      H2082   1.083       .  S
C2078      C2079   1.409       .  A
C2079      C2080   1.397       .  A
C2079      F2083   1.358       .  S
C2080      H2084   1.083       .  S
C2085      C2086   1.406       .  A
C2085      C2090   1.399       .  A
C2085      H2095   1.083       .  S
C2086      C2091   1.488   1_655  S
C2086      C2087   1.406       .  A
C2087      C2088   1.398       .  A
C2087      F2092   1.357       .  S
C2088      C2089   1.408       .  A
C2088      H2093   1.083       .  S
C2089      C2090   1.409       .  A
C2090      F2094   1.357       .  S
C2091      C2096   1.406       .  A
C2091      C2100   1.408       .  A
C2096      C2097   1.394       .  A
C2096      F2101   1.358       .  S
C2097      C2098   1.407       .  A
C2097      H2102   1.083       .  S
C2098      C2099   1.409       .  A
C2099      C2100   1.404       .  A
C2099      F2103   1.357       .  S
C2100      H2104   1.083       .  S
C2105      C2106   1.403       .  A
C2105      C2110   1.398       .  A
C2105      H2115   1.083       .  S
C2106      C2111   1.484   1_556  S
C2106      C2107   1.408       .  A
C2107      C2108   1.400       .  A
C2107      F2112   1.357       .  S
C2108      C2109   1.404       .  A
C2108      H2113   1.083       .  S
C2109      C2110   1.409       .  A
C2110      F2114   1.358       .  S
C2111      C2116   1.407       .  A
C2111      C2120   1.402       .  A
C2116      C2117   1.401       .  A
C2116      F2121   1.357       .  S
C2117      C2118   1.407       .  A
C2117      H2122   1.083       .  S
C2118      C2119   1.411       .  A
C2119      C2120   1.396       .  A
C2119      F2123   1.358       .  S
C2120      H2124   1.083       .  S
C2125      C2126   1.402       .  A
C2125      C2130   1.399       .  A
C2125      H2135   1.083       .  S
C2126      C2131   1.479       .  S
C2126      C2127   1.404       .  A
C2127      C2128   1.400       .  A
C2127      F2132   1.357       .  S
C2128      C2129   1.407       .  A
C2128      H2133   1.083       .  S
C2129      C2130   1.411       .  A
C2130      F2134   1.357       .  S
C2131      C2136   1.404       .  A
C2131      C2140   1.401       .  A
C2136      C2137   1.399       .  A
C2136      F2141   1.357       .  S
C2137      C2138   1.408       .  A
C2137      H2142   1.083       .  S
C2138      C2139   1.412       .  A
C2139      C2140   1.399       .  A
C2139      F2143   1.357       .  S
C2140      H2144   1.083       .  S
C2145      C2146   1.402       .  A
C2145      C2150   1.397       .  A
C2145      H2155   1.083       .  S
C2146      C2151   1.484       .  S
C2146      C2147   1.408       .  A
C2147      C2148   1.401       .  A
C2147      F2152   1.358       .  S
C2148      C2149   1.407       .  A
C2148      H2153   1.083       .  S
C2149      C2150   1.411       .  A
C2150      F2154   1.357       .  S
C2151      C2156   1.408       .  A
C2151      C2160   1.403       .  A
C2156      C2157   1.400       .  A
C2156      F2161   1.357       .  S
C2157      C2158   1.405       .  A
C2157      H2162   1.083       .  S
C2158      C2159   1.409       .  A
C2159      C2160   1.398       .  A
C2159      F2163   1.358       .  S
C2160      H2164   1.083       .  S
C2165      C2166   1.404       .  A
C2165      C2170   1.397       .  A
C2165      H2175   1.083       .  S
C2166      C2171   1.490       .  S
C2166      C2167   1.409       .  A
C2167      C2168   1.401       .  A
C2167      F2172   1.358       .  S
C2168      C2169   1.407       .  A
C2168      H2173   1.083       .  S
C2169      C2170   1.410       .  A
C2170      F2174   1.357       .  S
C2171      C2176   1.409       .  A
C2171      C2180   1.404       .  A
C2176      C2177   1.400       .  A
C2176      F2181   1.357       .  S
C2177      C2178   1.405       .  A
C2177      H2182   1.083       .  S
C2178      C2179   1.411       .  A
C2179      C2180   1.397       .  A
C2179      F2183   1.358       .  S
C2180      H2184   1.083       .  S
C2185      C2186   1.403       .  A
C2185      C2190   1.395       .  A
C2185      H2195   1.084       .  S
C2186      C2191   1.483   1_655  S
C2186      C2187   1.407       .  A
C2187      C2188   1.402       .  A
C2187      F2192   1.357       .  S
C2188      C2189   1.406       .  A
C2188      H2193   1.083       .  S
C2189      C2190   1.408       .  A
C2190      F2194   1.358       .  S
C2191      C2196   1.406       .  A
C2191      C2200   1.403       .  A
C2196      C2197   1.398       .  A
C2196      F2201   1.358       .  S
C2197      C2198   1.406       .  A
C2197      H2202   1.083       .  S
C2198      C2199   1.411       .  A
C2199      C2200   1.399       .  A
C2199      F2203   1.358       .  S
C2200      H2204   1.083       .  S
C2205      C2206   1.402       .  A
C2205      C2210   1.396       .  A
C2205      H2215   1.083       .  S
C2206      C2211   1.477       .  S
C2206      C2207   1.404       .  A
C2207      C2208   1.396       .  A
C2207      F2212   1.358       .  S
C2208      C2209   1.407       .  A
C2208      H2213   1.083       .  S
C2209      C2210   1.410       .  A
C2210      F2214   1.357       .  S
C2211      C2216   1.404       .  A
C2211      C2220   1.403       .  A
C2216      C2217   1.396       .  A
C2216      F2221   1.357       .  S
C2217      C2218   1.405       .  A
C2217      H2222   1.083       .  S
C2218      C2219   1.408       .  A
C2219      C2220   1.396       .  A
C2219      F2223   1.358       .  S
C2220      H2224   1.083       .  S
C2225      C2226   1.403       .  A
C2225      C2230   1.399       .  A
C2225      H2235   1.083       .  S
C2226      C2231   1.480       .  S
C2226      C2227   1.405       .  A
C2227      C2228   1.397       .  A
C2227      F2232   1.358       .  S
C2228      C2229   1.405       .  A
C2228      H2233   1.083       .  S
C2229      C2230   1.409       .  A
C2230      F2234   1.357       .  S
C2231      C2236   1.405       .  A
C2231      C2240   1.402       .  A
C2236      C2237   1.400       .  A
C2236      F2241   1.358       .  S
C2237      C2238   1.408       .  A
C2237      H2242   1.083       .  S
C2238      C2239   1.411       .  A
C2239      C2240   1.397       .  A
C2239      F2243   1.357       .  S
C2240      H2244   1.083       .  S
C2245      C2246   1.404       .  A
C2245      C2250   1.399       .  A
C2245      H2255   1.083       .  S
C2246      C2251   1.484       .  S
C2246      C2247   1.409       .  A
C2247      C2248   1.397       .  A
C2247      F2252   1.358       .  S
C2248      C2249   1.402       .  A
C2248      H2253   1.084       .  S
C2249      C2250   1.407       .  A
C2250      F2254   1.358       .  S
C2251      C2256   1.409       .  A
C2251      C2260   1.403       .  A
C2256      C2257   1.402       .  A
C2256      F2261   1.357       .  S
C2257      C2258   1.404       .  A
C2257      H2262   1.083       .  S
C2258      C2259   1.407       .  A
C2259      C2260   1.393       .  A
C2259      F2263   1.358       .  S
C2260      H2264   1.083       .  S
C2265      C2266   1.407       .  A
C2265      C2270   1.401       .  A
C2265      H2275   1.083       .  S
C2266      C2271   1.491       .  S
C2266      C2267   1.408       .  A
C2267      C2268   1.400       .  A
C2267      F2272   1.357       .  S
C2268      C2269   1.406       .  A
C2268      H2273   1.083       .  S
C2269      C2270   1.409       .  A
C2270      F2274   1.358       .  S
C2271      C2276   1.408       .  A
C2271      C2280   1.408       .  A
C2276      C2277   1.399       .  A
C2276      F2281   1.358       .  S
C2277      C2278   1.405       .  A
C2277      H2282   1.084       .  S
C2278      C2279   1.406       .  A
C2279      C2280   1.403       .  A
C2279      F2283   1.357       .  S
C2280      H2284   1.083       .  S
C2285      C2286   1.403       .  A
C2285      C2290   1.398       .  A
C2285      H2295   1.083       .  S
C2286      C2291   1.485       .  S
C2286      C2287   1.406       .  A
C2287      C2288   1.401       .  A
C2287      F2292   1.357       .  S
C2288      C2289   1.408       .  A
C2288      H2293   1.083       .  S
C2289      C2290   1.411       .  A
C2290      F2294   1.357       .  S
C2291      C2296   1.406       .  A
C2291      C2300   1.404       .  A
C2296      C2297   1.399       .  A
C2296      F2301   1.357       .  S
C2297      C2298   1.406       .  A
C2297      H2302   1.083       .  S
C2298      C2299   1.411       .  A
C2299      C2300   1.399       .  A
C2299      F2303   1.358       .  S
C2300      H2304   1.083       .  S
C2305      C2306   1.404       .  A
C2305      C2310   1.399       .  A
C2305      H2315   1.083       .  S
C2306      C2311   1.485       .  S
C2306      C2307   1.407       .  A
C2307      C2308   1.399       .  A
C2307      F2312   1.358       .  S
C2308      C2309   1.408       .  A
C2308      H2313   1.083       .  S
C2309      C2310   1.409       .  A
C2310      F2314   1.357       .  S
C2311      C2316   1.406       .  A
C2311      C2320   1.404       .  A
C2316      C2317   1.397       .  A
C2316      F2321   1.358       .  S
C2317      C2318   1.406       .  A
C2317      H2322   1.083       .  S
C2318      C2319   1.411       .  A
C2319      C2320   1.400       .  A
C2319      F2323   1.357       .  S
C2320      H2324   1.083       .  S
C2325      C2326   1.403       .  A
C2325      C2330   1.396       .  A
C2325      H2335   1.083       .  S
C2326      C2331   1.485       .  S
C2326      C2327   1.407       .  A
C2327      C2328   1.400       .  A
C2327      F2332   1.357       .  S
C2328      C2329   1.408       .  A
C2328      H2333   1.083       .  S
C2329      C2330   1.410       .  A
C2330      F2334   1.357       .  S
C2331      C2336   1.407       .  A
C2331      C2340   1.403       .  A
C2336      C2337   1.399       .  A
C2336      F2341   1.357       .  S
C2337      C2338   1.404       .  A
C2337      H2342   1.083       .  S
C2338      C2339   1.412       .  A
C2339      C2340   1.398       .  A
C2339      F2343   1.358       .  S
C2340      H2344   1.083       .  S
C2345      C2346   1.404       .  A
C2345      C2350   1.398       .  A
C2345      H2355   1.083       .  S
C2346      C2351   1.483   1_655  S
C2346      C2347   1.406       .  A
C2347      C2348   1.399       .  A
C2347      F2352   1.358       .  S
C2348      C2349   1.408       .  A
C2348      H2353   1.083       .  S
C2349      C2350   1.408       .  A
C2350      F2354   1.357       .  S
C2351      C2356   1.405       .  A
C2351      C2360   1.404       .  A
C2356      C2357   1.396       .  A
C2356      F2361   1.357       .  S
C2357      C2358   1.406       .  A
C2357      H2362   1.083       .  S
C2358      C2359   1.411       .  A
C2359      C2360   1.401       .  A
C2359      F2363   1.358       .  S
C2360      H2364   1.083       .  S
C2365      C2366   1.407       .  A
C2365      C2370   1.403       .  A
C2365      H2375   1.083       .  S
C2366      C2371   1.489   1_556  S
C2366      C2367   1.408       .  A
C2367      C2368   1.398       .  A
C2367      F2372   1.358       .  S
C2368      C2369   1.404       .  A
C2368      H2373   1.084       .  S
C2369      C2370   1.406       .  A
C2370      F2374   1.357       .  S
C2371      C2376   1.408       .  A
C2371      C2380   1.405       .  A
C2376      C2377   1.402       .  A
C2376      F2381   1.357       .  S
C2377      C2378   1.406       .  A
C2377      H2382   1.083       .  S
C2378      C2379   1.410       .  A
C2379      C2380   1.398       .  A
C2379      F2383   1.358       .  S
C2380      H2384   1.083       .  S
C2385      C2386   1.407       .  A
C2385      C2390   1.401       .  A
C2385      H2395   1.083       .  S
C2386      C2391   1.492       .  S
C2386      C2387   1.409       .  A
C2387      C2388   1.398       .  A
C2387      F2392   1.357       .  S
C2388      C2389   1.405       .  A
C2388      H2393   1.083       .  S
C2389      C2390   1.409       .  A
C2390      F2394   1.358       .  S
C2391      C2396   1.409       .  A
C2391      C2400   1.408       .  A
C2396      C2397   1.399       .  A
C2396      F2401   1.357       .  S
C2397      C2398   1.405       .  A
C2397      H2402   1.083       .  S
C2398      C2399   1.407       .  A
C2399      C2400   1.400       .  A
C2399      F2403   1.358       .  S
C2400      H2404   1.083       .  S
C2405      C2406   1.401       .  A
C2405      C2410   1.395       .  A
C2405      H2415   1.084       .  S
C2406      C2411   1.482       .  S
C2406      C2407   1.406       .  A
C2407      C2408   1.402       .  A
C2407      F2412   1.357       .  S
C2408      C2409   1.408       .  A
C2408      H2413   1.083       .  S
C2409      C2410   1.411       .  A
C2410      F2414   1.357       .  S
C2411      C2416   1.406       .  A
C2411      C2420   1.402       .  A
C2416      C2417   1.400       .  A
C2416      F2421   1.357       .  S
C2417      C2418   1.406       .  A
C2417      H2422   1.083       .  S
C2418      C2419   1.412       .  A
C2419      C2420   1.398       .  A
C2419      F2423   1.358       .  S
C2420      H2424   1.084       .  S
C2425      C2426   1.405       .  A
C2425      C2430   1.397       .  A
C2425      H2435   1.083       .  S
C2426      C2431   1.489   1_565  S
C2426      C2427   1.410       .  A
C2427      C2428   1.402       .  A
C2427      F2432   1.357       .  S
C2428      C2429   1.404       .  A
C2428      H2433   1.083       .  S
C2429      C2430   1.408       .  A
C2430      F2434   1.358       .  S
C2431      C2436   1.410       .  A
C2431      C2440   1.404       .  A
C2436      C2437   1.401       .  A
C2436      F2441   1.358       .  S
C2437      C2438   1.406       .  A
C2437      H2442   1.083       .  S
C2438      C2439   1.409       .  A
C2439      C2440   1.397       .  A
C2439      F2443   1.358       .  S
C2440      H2444   1.083       .  S
C2445      C2446   1.403       .  A
C2445      C2450   1.398       .  A
C2445      H2455   1.083       .  S
C2446      C2451   1.483   1_556  S
C2446      C2447   1.406       .  A
C2447      C2448   1.399       .  A
C2447      F2452   1.358       .  S
C2448      C2449   1.408       .  A
C2448      H2453   1.083       .  S
C2449      C2450   1.410       .  A
C2450      F2454   1.357       .  S
C2451      C2456   1.406       .  A
C2451      C2460   1.404       .  A
C2456      C2457   1.396       .  A
C2456      F2461   1.358       .  S
C2457      C2458   1.405       .  A
C2457      H2462   1.083       .  S
C2458      C2459   1.410       .  A
C2459      C2460   1.400       .  A
C2459      F2463   1.358       .  S
C2460      H2464   1.083       .  S
C2465      C2466   1.406       .  A
C2465      C2470   1.402       .  A
C2465      H2475   1.083       .  S
C2466      C2471   1.490       .  S
C2466      C2467   1.407       .  A
C2467      C2468   1.399       .  A
C2467      F2472   1.357       .  S
C2468      C2469   1.407       .  A
C2468      H2473   1.083       .  S
C2469      C2470   1.411       .  A
C2470      F2474   1.358       .  S
C2471      C2476   1.407       .  A
C2471      C2480   1.406       .  A
C2476      C2477   1.400       .  A
C2476      F2481   1.357       .  S
C2477      C2478   1.408       .  A
C2477      H2482   1.083       .  S
C2478      C2479   1.409       .  A
C2479      C2480   1.400       .  A
C2479      F2483   1.357       .  S
C2480      H2484   1.083       .  S
C2485      C2486   1.403       .  A
C2485      C2490   1.399       .  A
C2485      H2495   1.083       .  S
C2486      C2491   1.483       .  S
C2486      C2487   1.407       .  A
C2487      C2488   1.397       .  A
C2487      F2492   1.357       .  S
C2488      C2489   1.404       .  A
C2488      H2493   1.083       .  S
C2489      C2490   1.410       .  A
C2490      F2494   1.358       .  S
C2491      C2496   1.407       .  A
C2491      C2500   1.403       .  A
C2496      C2497   1.400       .  A
C2496      F2501   1.358       .  S
C2497      C2498   1.407       .  A
C2497      H2502   1.083       .  S
C2498      C2499   1.409       .  A
C2499      C2500   1.395       .  A
C2499      F2503   1.357       .  S
C2500      H2504   1.083       .  S
C2505      C2506   1.405       .  A
C2505      C2510   1.397       .  A
C2505      H2515   1.083       .  S
C2506      C2511   1.483       .  S
C2506      C2507   1.406       .  A
C2507      C2508   1.397       .  A
C2507      F2512   1.358       .  S
C2508      C2509   1.406       .  A
C2508      H2513   1.083       .  S
C2509      C2510   1.407       .  A
C2510      F2514   1.357       .  S
C2511      C2516   1.407       .  A
C2511      C2520   1.407       .  A
C2516      C2517   1.394       .  A
C2516      F2521   1.358       .  S
C2517      C2518   1.402       .  A
C2517      H2522   1.084       .  S
C2518      C2519   1.405       .  A
C2519      C2520   1.400       .  A
C2519      F2523   1.358       .  S
C2520      H2524   1.083       .  S
C2525      C2526   1.404       .  A
C2525      C2530   1.397       .  A
C2525      H2535   1.083       .  S
C2526      C2531   1.485   1_655  S
C2526      C2527   1.408       .  A
C2527      C2528   1.397       .  A
C2527      F2532   1.358       .  S
C2528      C2529   1.405       .  A
C2528      H2533   1.083       .  S
C2529      C2530   1.410       .  A
C2530      F2534   1.358       .  S
C2531      C2536   1.408       .  A
C2531      C2540   1.404       .  A
C2536      C2537   1.400       .  A
C2536      F2541   1.357       .  S
C2537      C2538   1.406       .  A
C2537      H2542   1.083       .  S
C2538      C2539   1.408       .  A
C2539      C2540   1.395       .  A
C2539      F2543   1.358       .  S
C2540      H2544   1.083       .  S
C2545      C2546   1.402       .  A
C2545      C2550   1.398       .  A
C2545      H2555   1.083       .  S
C2546      C2551   1.478   1_565  S
C2546      C2547   1.404       .  A
C2547      C2548   1.397       .  A
C2547      F2552   1.358       .  S
C2548      C2549   1.406       .  A
C2548      H2553   1.083       .  S
C2549      C2550   1.410       .  A
C2550      F2554   1.358       .  S
C2551      C2556   1.404       .  A
C2551      C2560   1.402       .  A
C2556      C2557   1.397       .  A
C2556      F2561   1.358       .  S
C2557      C2558   1.408       .  A
C2557      H2562   1.083       .  S
C2558      C2559   1.410       .  A
C2559      C2560   1.398       .  A
C2559      F2563   1.357       .  S
C2560      H2564   1.083       .  S
C2565      C2566   1.404       .  A
C2565      C2570   1.397       .  A
C2565      H2575   1.083       .  S
C2566      C2571   1.484       .  S
C2566      C2567   1.406       .  A
C2567      C2568   1.399       .  A
C2567      F2572   1.357       .  S
C2568      C2569   1.407       .  A
C2568      H2573   1.083       .  S
C2569      C2570   1.409       .  A
C2570      F2574   1.358       .  S
C2571      C2576   1.406       .  A
C2571      C2580   1.404       .  A
C2576      C2577   1.396       .  A
C2576      F2581   1.358       .  S
C2577      C2578   1.406       .  A
C2577      H2582   1.083       .  S
C2578      C2579   1.411       .  A
C2579      C2580   1.400       .  A
C2579      F2583   1.357       .  S
C2580      H2584   1.083       .  S
C2585      C2586   1.402       .  A
C2585      C2590   1.397       .  A
C2585      H2595   1.084       .  S
C2586      C2591   1.474       .  S
C2586      C2587   1.402       .  A
C2587      C2588   1.395       .  A
C2587      F2592   1.357       .  S
C2588      C2589   1.407       .  A
C2588      H2593   1.083       .  S
C2589      C2590   1.411       .  A
C2590      F2594   1.358       .  S
C2591      C2596   1.402       .  A
C2591      C2600   1.404       .  A
C2596      C2597   1.395       .  A
C2596      F2601   1.357       .  S
C2597      C2598   1.405       .  A
C2597      H2602   1.083       .  S
C2598      C2599   1.407       .  A
C2599      C2600   1.398       .  A
C2599      F2603   1.358       .  S
C2600      H2604   1.084       .  S
C2605      C2606   1.401       .  A
C2605      C2610   1.398       .  A
C2605      H2615   1.083       .  S
C2606      C2611   1.478       .  S
C2606      C2607   1.405       .  A
C2607      C2608   1.397       .  A
C2607      F2612   1.358       .  S
C2608      C2609   1.406       .  A
C2608      H2613   1.083       .  S
C2609      C2610   1.411       .  A
C2610      F2614   1.358       .  S
C2611      C2616   1.406       .  A
C2611      C2620   1.400       .  A
C2616      C2617   1.401       .  A
C2616      F2621   1.358       .  S
C2617      C2618   1.408       .  A
C2617      H2622   1.083       .  S
C2618      C2619   1.411       .  A
C2619      C2620   1.394       .  A
C2619      F2623   1.357       .  S
C2620      H2624   1.084       .  S
