geometry optimzed in LAMMPS
_audit_creation_date              2020-11-30 
_audit_creation_method            'lammps2cif' 
_symmetry_space_group_name_H-M    'P1' 
_symmetry_Int_Tables_number       1 
_symmetry_cell_setting            triclinic 
loop_ 
_symmetry_equiv_pos_as_xyz 
  x,y,z 
_cell_length_a                    81.44585994 
_cell_length_b                    81.74615270488975 
_cell_length_c                    81.63230524226495 
_cell_angle_alpha                 90.12316150799569 
_cell_angle_beta                  89.83521104663357 
_cell_angle_gamma                 90.1271732975828 
loop_ 
_atom_site_label 
_atom_site_type_symbol 
_atom_site_fract_x 
_atom_site_fract_y 
_atom_site_fract_z 
_atom_site_charge 
In1        In  0.63257898  0.33360215  0.75093758     1.36900
C2          C  0.64542714  0.34048091  0.78057777     0.77900
O3          O  0.63136000  0.30932933  0.73824080    -0.60500
O4          O  0.61950533  0.31139567  0.76137936    -0.51400
C5          C  0.60869944  0.35242265  0.73778842     0.70600
O6          O  0.61670386  0.35675066  0.75026440    -0.46300
C7          C  0.65921946  0.33572584  0.73213309     0.75300
O8          O  0.63375466  0.33045452  0.77882114    -0.58100
O9          O  0.65658443  0.32374036  0.74144286    -0.48200
O10         O  0.64948465  0.34768087  0.76758544    -0.54600
C11         C  0.62343010  0.30226107  0.74946241     0.85500
O12         O  0.61183027  0.33812460  0.73313082    -0.56500
O13         O  0.64839110  0.34667490  0.73260570    -0.59800
In14       In  0.63135521  0.15592700  0.74649664     1.36900
C15         C  0.64348182  0.14688768  0.71755576     0.77900
O16         O  0.62195622  0.17831600  0.73325498    -0.60500
O17         O  0.62634425  0.17999377  0.75882583    -0.51400
C18         C  0.60775655  0.13717047  0.76013064     0.70600
O19         O  0.61453111  0.13347855  0.74675110    -0.46300
C20         C  0.65924450  0.15519968  0.76339497     0.75300
O21         O  0.63094929  0.15592340  0.71867132    -0.58100
O22         O  0.65493936  0.16742465  0.75513237    -0.48200
O23         O  0.64881459  0.14167306  0.73100344    -0.54600
C24         C  0.62225970  0.18727642  0.74588180     0.85500
O25         O  0.61197561  0.15089038  0.76561706    -0.56500
O26         O  0.64923608  0.14344683  0.76318677    -0.59800
In27       In  0.75497815  0.32904701  0.87614586     1.36900
C28         C  0.72709103  0.33764681  0.86087346     0.77900
O29         O  0.77433866  0.34254221  0.86201618    -0.60500
O30         O  0.76707595  0.31902225  0.85356241    -0.51400
C31         C  0.76714869  0.34726964  0.90076461     0.70600
O32         O  0.75477918  0.35165011  0.89265110    -0.46300
C33         C  0.75339874  0.29765087  0.88522714     0.75300
O34         O  0.72703976  0.32966310  0.87410394    -0.58100
O35         O  0.76631953  0.30442608  0.88010576    -0.48200
O36         O  0.74115668  0.34191235  0.85611302    -0.54600
C37         C  0.77604661  0.33142988  0.85144840     0.85500
O38         O  0.77195910  0.33306086  0.89752370    -0.56500
O39         O  0.74109183  0.30699245  0.88603962    -0.59800
In40       In  0.75784055  0.15412149  0.87056758     1.36900
C41         C  0.78815026  0.14815297  0.85915452     0.77900
O42         O  0.74312294  0.14088551  0.85149148    -0.60500
O43         O  0.74884425  0.16581057  0.84727629    -0.51400
C44         C  0.74322487  0.13520447  0.89329454     0.70600
O45         O  0.75789959  0.13288092  0.88891179    -0.46300
C46         C  0.75541302  0.18394339  0.88340245     0.75300
O47         O  0.78467304  0.16078511  0.86730727    -0.58100
O48         O  0.74470429  0.17769572  0.87418964    -0.48200
O49         O  0.77649648  0.13808508  0.85784751    -0.54600
C50         C  0.74162301  0.15312672  0.84230706     0.85500
O51         O  0.73660699  0.14731632  0.88665491    -0.56500
O52         O  0.76746521  0.17473010  0.88655744    -0.59800
In53       In  0.87961241  0.33541850  0.74807898     1.36900
C54         C  0.86837430  0.34216297  0.71802601     0.77900
O55         O  0.89483882  0.31427264  0.73878695    -0.60500
O56         O  0.87938717  0.31067494  0.75953721    -0.51400
C57         C  0.90271928  0.35341041  0.76329046     0.70600
O58         O  0.89754173  0.35698237  0.74919622    -0.46300
C59         C  0.85214256  0.33719468  0.76541064     0.75300
O60         O  0.87922913  0.33147664  0.72042436    -0.58100
O61         O  0.85548792  0.32517579  0.75632846    -0.48200
O62         O  0.86446809  0.35017501  0.73061644    -0.54600
C63         C  0.88940870  0.30451024  0.74952139     0.85500
O64         O  0.89697210  0.34030397  0.76886496    -0.56500
O65         O  0.86243083  0.34871415  0.76499058    -0.59800
In66       In  0.88362261  0.15926010  0.75162132     1.36900
C67         C  0.87086523  0.15124334  0.78072739     0.77900
O68         O  0.88696179  0.18383652  0.73966247    -0.60500
O69         O  0.89525218  0.18098258  0.76413676    -0.51400
C70         C  0.90833228  0.14149753  0.73907836     0.70600
O71         O  0.90168455  0.13797925  0.75257750    -0.46300
C72         C  0.85675534  0.15662813  0.73344985     0.75300
O73         O  0.88163397  0.16221841  0.77908467    -0.58100
O74         O  0.85945073  0.16882650  0.74251636    -0.48200
O75         O  0.86751901  0.14360529  0.76775172    -0.54600
C76         C  0.89332384  0.19043958  0.75209595     0.85500
O77         O  0.90315559  0.15448574  0.73279557    -0.56500
O78         O  0.86773490  0.14583597  0.73370571    -0.59800
In79       In  0.75564915  0.15696145  0.62745797     1.36900
C80         C  0.72660191  0.14826330  0.64000324     0.77900
O81         O  0.77506041  0.14420422  0.64192939    -0.60500
O82         O  0.76445418  0.16570106  0.65200536    -0.51400
C83         C  0.76868599  0.13920293  0.60285410     0.70600
O84         O  0.75597703  0.13465206  0.61042175    -0.46300
C85         C  0.75602967  0.18863565  0.61967570     0.75300
O86         O  0.72784944  0.15858952  0.62860119    -0.58100
O87         O  0.76782574  0.18146040  0.62651161    -0.48200
O88         O  0.73994878  0.14176315  0.64412323    -0.54600
C89         C  0.77474438  0.15433819  0.65355326     0.85500
O90         O  0.77350270  0.15328259  0.60672594    -0.56500
O91         O  0.74395498  0.17950777  0.61628809    -0.59800
In92       In  0.75854598  0.33495520  0.62389067     1.36900
C93         C  0.78803569  0.34229301  0.63658080     0.77900
O94         O  0.74069331  0.34847681  0.63984368    -0.60500
O95         O  0.75019127  0.32599455  0.64856653    -0.51400
C96         C  0.74461780  0.35248474  0.59960471     0.70600
O97         O  0.75876227  0.35583551  0.60496822    -0.46300
C98         C  0.75736194  0.30348641  0.61548504     0.75300
O99         O  0.78615822  0.33106441  0.62613216    -0.58100
O100        O  0.74587415  0.31061375  0.62296756    -0.48200
O101        O  0.77532166  0.35066639  0.63917635    -0.54600
C102        C  0.74073369  0.33790735  0.65103532     0.85500
O103        O  0.73860202  0.33966129  0.60554157    -0.56500
O104        O  0.76927606  0.31261447  0.61154983    -0.59800
C105        C  0.96252243  0.45840910  0.16023041     0.86800
C106        C  0.95246646  0.45220032  0.17493215    -0.53400
C107        C  0.93783112  0.44507992  0.17075164     0.09800
C108        C  0.93482361  0.44457672  0.15202330     0.20700
C109        C  0.96457666  0.44329559  0.14914705    -0.54100
C110        C  0.95007197  0.43602475  0.14464058     0.09900
C111        C  0.95084215  0.46962759  0.15083623    -0.53600
C112        C  0.93637909  0.46249061  0.14643564     0.10400
H113        H  0.95639194  0.45376571  0.18753836     0.15000
H114        H  0.92300889  0.43880055  0.14862116     0.00700
H115        H  0.97641993  0.43892662  0.14499898     0.15300
H116        H  0.95407198  0.48210256  0.14758903     0.15100
C117        C  0.85076711  0.52530231  0.05147533     0.86800
C118        C  0.83659180  0.53310748  0.06110369    -0.53400
C119        C  0.84129100  0.54079454  0.07529066     0.09800
C120        C  0.86003222  0.53964648  0.07852950     0.20700
C121        C  0.86318708  0.53936223  0.04892506    -0.54100
C122        C  0.86818200  0.54692082  0.06308982     0.09900
C123        C  0.85914593  0.51386401  0.06365567    -0.53600
C124        C  0.86413353  0.52122029  0.07778461     0.10400
H125        H  0.82399293  0.53266782  0.05685080     0.15000
H126        H  0.86403515  0.54550923  0.09004621     0.00700
H127        H  0.86781749  0.54288370  0.03701684     0.15300
H128        H  0.86152132  0.50109303  0.06087977     0.15100
C129        C  0.04319446  0.53988506  0.16061979     0.86800
C130        C  0.05790358  0.53801233  0.14898240    -0.53400
C131        C  0.06503415  0.55239314  0.14430577     0.09800
C132        C  0.05679142  0.56758282  0.15209773     0.20700
C133        C  0.04996906  0.54977064  0.17517852    -0.54100
C134        C  0.05693888  0.56445170  0.17079799     0.09900
C135        C  0.03155575  0.55168268  0.15187796    -0.53600
C136        C  0.03854714  0.56619776  0.14738853     0.10400
H137        H  0.06223747  0.52629452  0.14459345     0.15000
H138        H  0.06260113  0.57931516  0.14851393     0.00700
H139        H  0.04877281  0.54578552  0.18780358     0.15300
H140        H  0.01887048  0.54854493  0.14928740     0.15100
C141        C  0.97243796  0.64705833  0.05147155     0.86800
C142        C  0.95851567  0.63442909  0.04920677    -0.53400
C143        C  0.95111956  0.62956213  0.06351460     0.09800
C144        C  0.95840565  0.63805634  0.07878704     0.20700
C145        C  0.96445123  0.66125250  0.06098661    -0.54100
C146        C  0.95708549  0.65667712  0.07542046     0.09900
C147        C  0.98413795  0.63909219  0.06373455    -0.53600
C148        C  0.97693866  0.63436583  0.07802296     0.10400
H149        H  0.95503884  0.62956694  0.03738404     0.15000
H150        H  0.95264892  0.63414086  0.09041031     0.00700
H151        H  0.96498319  0.67380336  0.05673673     0.15300
H152        H  0.99704217  0.63705267  0.06106509     0.15100
C153        C  0.05390308  0.65133043  0.97060292     0.86800
C154        C  0.06387758  0.66566528  0.96349295    -0.53400
C155        C  0.07824929  0.66106638  0.95593298     0.09800
C156        C  0.08114263  0.64234891  0.95621174     0.20700
C157        C  0.05139079  0.63966093  0.95598781    -0.54100
C158        C  0.06559501  0.63480918  0.94841091     0.09900
C159        C  0.06590578  0.64236520  0.98182139    -0.53600
C160        C  0.08013846  0.63764059  0.97445935     0.10400
H161        H  0.05996635  0.67829761  0.96462666     0.15000
H162        H  0.09270214  0.63846740  0.95022977     0.00700
H163        H  0.03946685  0.63544108  0.95205097     0.15300
H164        H  0.06306134  0.63964134  0.99452965     0.15100
C165        C  0.16258361  0.54034774  0.03824709     0.86800
C166        C  0.17711943  0.55066635  0.04456656    -0.53400
C167        C  0.17257075  0.56517539  0.05180475     0.09800
C168        C  0.15374226  0.56775618  0.05216475     0.20700
C169        C  0.15138360  0.53811380  0.05337437    -0.54100
C170        C  0.14659054  0.55244237  0.06064154     0.09900
C171        C  0.15308252  0.55192356  0.02700476    -0.53600
C172        C  0.14841652  0.56625638  0.03416261     0.10400
H173        H  0.18982055  0.54699701  0.04297077     0.15000
H174        H  0.14989881  0.57935314  0.05800066     0.00700
H175        H  0.14729446  0.52630031  0.05776428     0.15300
H176        H  0.15011861  0.54878634  0.01442536     0.15100
C177        C  0.84690381  0.44543195  0.97021011     0.86800
C178        C  0.85847168  0.44812628  0.95551244    -0.53400
C179        C  0.86394661  0.43401327  0.94824522     0.09800
C180        C  0.85708367  0.41836633  0.95645475     0.20700
C181        C  0.83296376  0.43475987  0.96334829    -0.54100
C182        C  0.83820100  0.42054491  0.95607942     0.09900
C183        C  0.85643462  0.43415127  0.98167248    -0.53600
C184        C  0.86169424  0.41994126  0.97472939     0.10400
H185        H  0.86215458  0.46009690  0.95123795     0.15000
H186        H  0.86133144  0.40686338  0.95065256     0.00700
H187        H  0.82011895  0.43813862  0.96433760     0.15300
H188        H  0.85885801  0.43733972  0.99435603     0.15100
C189        C  0.95883385  0.33880772  0.03895067     0.86800
C190        C  0.96093583  0.35050550  0.05354307    -0.53400
C191        C  0.94658031  0.35471999  0.06121703     0.09800
C192        C  0.93126313  0.34661697  0.05341624     0.20700
C193        C  0.94950913  0.32403607  0.04605267    -0.54100
C194        C  0.93494520  0.32801844  0.05356522     0.09900
C195        C  0.94645630  0.34726401  0.02779799    -0.53600
C196        C  0.93200786  0.35136888  0.03515660     0.10400
H197        H  0.97275476  0.35517668  0.05734814     0.15000
H198        H  0.91955266  0.34994701  0.05949249     0.00700
H199        H  0.95384111  0.31154599  0.04479840     0.15300
H200        H  0.94914207  0.34995742  0.01504749     0.15100
C201        C  0.96738866  0.45063177  0.84823748     0.86800
C202        C  0.96009691  0.44122263  0.83359671    -0.53400
C203        C  0.95304900  0.42650780  0.83781643     0.09800
C204        C  0.95386137  0.42287646  0.85643665     0.20700
C205        C  0.95296138  0.45227989  0.86043692    -0.54100
C206        C  0.94598594  0.43776117  0.86498256     0.09900
C207        C  0.97919500  0.43855332  0.85622271    -0.53600
C208        C  0.97219129  0.42408196  0.86058358     0.10400
H209        H  0.96097520  0.44559001  0.82108644     0.15000
H210        H  0.94825736  0.41107765  0.86005137     0.00700
H211        H  0.94888491  0.46390446  0.86535948     0.15300
H212        H  0.99199396  0.44145982  0.85859252     0.15100
C213        C  0.03758845  0.34055952  0.95521021     0.86800
C214        C  0.04444372  0.32652068  0.94462042    -0.53400
C215        C  0.05155862  0.33158567  0.93019531     0.09800
C216        C  0.05090098  0.35033924  0.92778137     0.20700
C217        C  0.05225084  0.35224776  0.95746795    -0.54100
C218        C  0.05927357  0.35748346  0.94315082     0.09900
C219        C  0.02583011  0.34967909  0.94393268    -0.53600
C220        C  0.03258537  0.35475338  0.92953496     0.10400
H221        H  0.04382559  0.31383060  0.94841454     0.15000
H222        H  0.05640703  0.35456188  0.91615341     0.00700
H223        H  0.05678949  0.35604251  0.96931685     0.15300
H224        H  0.01313995  0.35198013  0.94729247     0.15100
C225        C  0.04990443  0.53101362  0.84904579     0.86800
C226        C  0.04784195  0.54565076  0.86073308    -0.53400
C227        C  0.06224971  0.55297719  0.86531237     0.09800
C228        C  0.07752106  0.54495899  0.85733763     0.20700
C229        C  0.05954482  0.53798157  0.83441088    -0.54100
C230        C  0.07413944  0.54523464  0.83866771     0.09900
C231        C  0.06194203  0.51960688  0.85765711    -0.53600
C232        C  0.07645413  0.52672286  0.86196874     0.10400
H233        H  0.03596451  0.54976202  0.86507229     0.15000
H234        H  0.08928058  0.55076787  0.86084078     0.00700
H235        H  0.05536545  0.53690640  0.82184135     0.15300
H236        H  0.05906043  0.50687739  0.86015654     0.15100
C237        C  0.15967570  0.46054330  0.95588917     0.86800
C238        C  0.14721609  0.44644459  0.95789309    -0.53400
C239        C  0.14255136  0.43924547  0.94342203     0.09800
C240        C  0.15094887  0.44694017  0.92821814     0.20700
C241        C  0.17401396  0.45290374  0.94632138    -0.54100
C242        C  0.16961333  0.44582370  0.93174015     0.09900
C243        C  0.15154902  0.47226620  0.94378546    -0.53600
C244        C  0.14693526  0.46536089  0.92929505     0.10400
H245        H  0.14237890  0.44257504  0.96962644     0.15000
H246        H  0.14729867  0.44120770  0.91646992     0.00700
H247        H  0.18660907  0.45345141  0.95060097     0.15300
H248        H  0.14940828  0.48504391  0.94672023     0.15100
In249      In  0.63577342  0.74444675  0.16484436     1.36900
C250        C  0.64450570  0.71311694  0.15983184     0.77900
O251        O  0.65123731  0.75992030  0.14809962    -0.60500
O252        O  0.66210956  0.75092084  0.16984821    -0.51400
C253        C  0.61160025  0.75953380  0.14827414     0.70600
O254        O  0.61538037  0.74480226  0.14548472    -0.46300
C255        C  0.62901227  0.74985081  0.19636406     0.75300
O256        O  0.63707041  0.71771253  0.17258129    -0.58100
O257        O  0.64055314  0.75685623  0.18878949    -0.48200
O258        O  0.64598510  0.72408293  0.14913806    -0.54600
C259        C  0.66377420  0.75932227  0.15703914     0.85500
O260        O  0.61929679  0.76584663  0.16001551    -0.56500
O261        O  0.62057958  0.74008561  0.18774433    -0.59800
In262      In  0.63413514  0.75316351  0.34245518     1.36900
C263        C  0.64358546  0.78221382  0.35460496     0.77900
O264        O  0.65428350  0.73985212  0.35582524    -0.60500
O265        O  0.65326591  0.73776215  0.32999023    -0.51400
C266        C  0.61137535  0.73561696  0.35831227     0.70600
O267        O  0.61288765  0.75084757  0.36051622    -0.46300
C268        C  0.62701351  0.75804859  0.31100973     0.75300
O269        O  0.63262049  0.78101542  0.34378687    -0.58100
O270        O  0.64078787  0.76123314  0.31725729    -0.48200
O271        O  0.64844839  0.76871394  0.36009108    -0.54600
C272        C  0.66036446  0.73372035  0.34302385     0.85500
O273        O  0.62062479  0.72983859  0.34741964    -0.56500
O274        O  0.61635191  0.75284401  0.32102094    -0.59800
In275      In  0.75865912  0.62355047  0.34112099     1.36900
C276        C  0.78657863  0.63559062  0.35346303     0.77900
O277        O  0.77159896  0.62506876  0.31667136    -0.60500
O278        O  0.75339198  0.60681261  0.31945478    -0.51400
C279        C  0.74397053  0.60016098  0.35886140     0.70600
O280        O  0.75866897  0.60438663  0.36146831    -0.46300
C281        C  0.73840655  0.64918390  0.34083355     0.75300
O282        O  0.78634890  0.62264553  0.34495354    -0.58100
O283        O  0.74508518  0.64372087  0.32802489    -0.48200
O284        O  0.77262507  0.64144785  0.35651237    -0.54600
C285        C  0.76349816  0.61372691  0.31001435     0.85500
O286        O  0.73744632  0.60712943  0.34683593    -0.56500
O287        O  0.74202466  0.64156387  0.35366299    -0.59800
In288      In  0.75355369  0.62175270  0.16452645     1.36900
C289        C  0.72261183  0.63103169  0.15818364     0.77900
O290        O  0.74810047  0.60458639  0.18603019    -0.60500
O291        O  0.76557626  0.62365466  0.18893531    -0.51400
C292        C  0.77017786  0.60011462  0.14612884     0.70600
O293        O  0.75476335  0.60146786  0.14502057    -0.46300
C294        C  0.76823399  0.65050762  0.16015296     0.75300
O295        O  0.72655663  0.62378899  0.17118207    -0.58100
O296        O  0.76826509  0.63939445  0.14947824    -0.48200
O297        O  0.73406255  0.63212190  0.14786078    -0.54600
C298        C  0.75802621  0.61189492  0.19547251     0.85500
O299        O  0.77646017  0.60879868  0.15716129    -0.56500
O300        O  0.76015469  0.64721258  0.17291778    -0.59800
In301      In  0.75452728  0.86812100  0.33987337     1.36900
C302        C  0.72598026  0.85811453  0.35285521     0.77900
O303        O  0.74408529  0.86073293  0.31539902    -0.60500
O304        O  0.75472449  0.88434017  0.31730056    -0.51400
C305        C  0.77087475  0.89158608  0.35646538     0.70600
O306        O  0.75580669  0.88879529  0.35882812    -0.46300
C307        C  0.77540838  0.84311712  0.34042842     0.75300
O308        O  0.72689230  0.87023521  0.34332576    -0.58100
O309        O  0.77159778  0.85038120  0.32742556    -0.48200
O310        O  0.73964455  0.85197437  0.35652034    -0.54600
C311        C  0.74804311  0.87376395  0.30816339     0.85500
O312        O  0.77700841  0.88339815  0.34493808    -0.56500
O313        O  0.76836788  0.84842243  0.35309998    -0.59800
In314      In  0.75833524  0.86781716  0.16108073     1.36900
C315        C  0.78882716  0.85747045  0.15468670     0.77900
O316        O  0.76345402  0.88271122  0.18420461    -0.60500
O317        O  0.74643886  0.86300665  0.18519119    -0.51400
C318        C  0.74389755  0.89170677  0.14391593     0.70600
O319        O  0.75872767  0.88785556  0.14155457    -0.46300
C320        C  0.74260651  0.84021492  0.15432832     0.75300
O321        O  0.78535576  0.86576036  0.16726200    -0.58100
O322        O  0.75185438  0.84177055  0.16655734    -0.48200
O323        O  0.77724329  0.85613697  0.14461409    -0.54600
C324        C  0.75380825  0.87416088  0.19289088     0.85500
O325        O  0.73722887  0.88443095  0.15573975    -0.56500
O326        O  0.74145247  0.85273918  0.14546891    -0.59800
In327      In  0.88104505  0.74026797  0.34284346     1.36900
C328        C  0.86895031  0.71287490  0.35581568     0.77900
O329        O  0.86145346  0.75528822  0.35501106    -0.60500
O330        O  0.86418286  0.75698659  0.32921611    -0.51400
C331        C  0.90416055  0.75645312  0.35971433     0.70600
O332        O  0.90157530  0.74138522  0.36199877    -0.46300
C333        C  0.88721864  0.73336802  0.31131601     0.75300
O334        O  0.88200085  0.71294908  0.34740462    -0.58100
O335        O  0.87399755  0.72980487  0.31849937    -0.48200
O336        O  0.86308531  0.72681522  0.35869520    -0.54600
C337        C  0.85660861  0.76161160  0.34183878     0.85500
O338        O  0.89592674  0.76253651  0.34828004    -0.56500
O339        O  0.89798463  0.73967317  0.32051907    -0.59800
In340      In  0.87823993  0.74546585  0.16443314     1.36900
C341        C  0.86872862  0.77619408  0.15738259     0.77900
O342        O  0.85259687  0.73855011  0.17152879    -0.60500
O343        O  0.86203215  0.72919153  0.14914616    -0.51400
C344        C  0.90189514  0.72976787  0.14730396     0.70600
O345        O  0.89887587  0.74476569  0.14516643    -0.46300
C346        C  0.88486954  0.74069856  0.19625939     0.75300
O347        O  0.87736579  0.77285090  0.16972899    -0.58100
O348        O  0.87200533  0.73587238  0.18927039    -0.48200
O349        O  0.86649127  0.76427244  0.14789694    -0.54600
C350        C  0.85020730  0.72971075  0.15912962     0.85500
O351        O  0.89359472  0.72335081  0.15860296    -0.56500
O352        O  0.89475555  0.74830069  0.18697177    -0.59800
C353        C  0.05188921  0.84005123  0.53646450     0.86800
C354        C  0.06175791  0.82586489  0.54380356    -0.53400
C355        C  0.07593870  0.83057361  0.55154016     0.09800
C356        C  0.07875404  0.84935315  0.55120321     0.20700
C357        C  0.04899445  0.85185863  0.55092557    -0.54100
C358        C  0.06303438  0.85691386  0.55868086     0.09900
C359        C  0.06407808  0.84904555  0.52534885    -0.53600
C360        C  0.07813520  0.85393892  0.53292630     0.10400
H361        H  0.05789420  0.81320836  0.54264431     0.15000
H362        H  0.09020274  0.85337801  0.55721254     0.00700
H363        H  0.03697066  0.85608086  0.55460137     0.15300
H364        H  0.06157813  0.85154816  0.51253592     0.15100
C365        C  0.16372855  0.95031059  0.47076593     0.86800
C366        C  0.17816059  0.93992081  0.46447004    -0.53400
C367        C  0.17349125  0.92535213  0.45751973     0.09800
C368        C  0.15467032  0.92275452  0.45740258     0.20700
C369        C  0.15248257  0.95240856  0.45576634    -0.54100
C370        C  0.14762396  0.93799096  0.44873621     0.09900
C371        C  0.15423493  0.93895930  0.48232097    -0.53600
C372        C  0.14953055  0.92448373  0.47549115     0.10400
H373        H  0.19088469  0.94360840  0.46588897     0.15000
H374        H  0.15080244  0.91108336  0.45170310     0.00700
H375        H  0.14850999  0.96417915  0.45120710     0.15300
H376        H  0.15149474  0.94225218  0.49492659     0.15100
C377        C  0.16286594  0.02989266  0.55220333     0.86800
C378        C  0.15176165  0.04481528  0.54952059    -0.53400
C379        C  0.14649806  0.05210877  0.56366685     0.09800
C380        C  0.15312552  0.04387311  0.57929466     0.20700
C381        C  0.17699062  0.03633433  0.56280298    -0.54100
C382        C  0.17198981  0.04367511  0.57706962     0.09900
C383        C  0.15299880  0.01867112  0.56353954    -0.53600
C384        C  0.14788563  0.02584805  0.57775619     0.10400
H385        H  0.14808255  0.04910070  0.53756490     0.15000
H386        H  0.14897278  0.04980021  0.59077822     0.00700
H387        H  0.18977418  0.03490296  0.55933579     0.15300
H388        H  0.15013374  0.00612061  0.56025870     0.15100
C389        C  0.05116129  0.95999745  0.65973936     0.86800
C390        C  0.04871417  0.94567192  0.64764509    -0.53400
C391        C  0.06301523  0.93853077  0.64237483     0.09800
C392        C  0.07848960  0.94641721  0.65002225     0.20700
C393        C  0.06131043  0.95265017  0.67375637    -0.54100
C394        C  0.07573026  0.94553756  0.66874269     0.09900
C395        C  0.06289947  0.97168677  0.65095530    -0.53600
C396        C  0.07714826  0.96474012  0.64587931     0.10400
H397        H  0.03677877  0.94156458  0.64358176     0.15000
H398        H  0.09018409  0.94082768  0.64596164     0.00700
H399        H  0.05755241  0.95337213  0.68650494     0.15300
H400        H  0.05991299  0.98441556  0.64862779     0.15100
C401        C  0.97240416  0.04234165  0.65739584     0.86800
C402        C  0.96638319  0.05270516  0.67188617    -0.53400
C403        C  0.95962567  0.06734089  0.66743538     0.09800
C404        C  0.95935732  0.07007385  0.64863110     0.20700
C405        C  0.95722813  0.04046757  0.64627114    -0.54100
C406        C  0.95037011  0.05499942  0.64151166     0.09900
C407        C  0.98408029  0.05355953  0.64784874    -0.53600
C408        C  0.97733828  0.06801657  0.64310451     0.10400
H409        H  0.96783455  0.04893439  0.68453846     0.15000
H410        H  0.95391840  0.08189832  0.64492762     0.00700
H411        H  0.95256535  0.02873395  0.64222999     0.15300
H412        H  0.99654556  0.05002797  0.64470067     0.15100
C413        C  0.04346727  0.15179832  0.54706001     0.86800
C414        C  0.05062126  0.16571722  0.55746520    -0.53400
C415        C  0.05751835  0.16073768  0.57187894     0.09800
C416        C  0.05676585  0.14198130  0.57435501     0.20700
C417        C  0.05790670  0.13986821  0.54455975    -0.54100
C418        C  0.06485738  0.13458784  0.55889225     0.09900
C419        C  0.03161486  0.14272842  0.55853751    -0.53600
C420        C  0.03846008  0.13748006  0.57280265     0.10400
H421        H  0.04983260  0.17845236  0.55383519     0.15000
H422        H  0.06237866  0.13789454  0.58595852     0.00700
H423        H  0.06208919  0.13570907  0.53265598     0.15300
H424        H  0.01892543  0.14032167  0.55528104     0.15100
C425        C  0.97124810  0.83978523  0.45616030     0.86800
C426        C  0.95677128  0.85154407  0.45864314    -0.53400
C427        C  0.94957375  0.85670186  0.44443623     0.09800
C428        C  0.95756912  0.84929438  0.42893578     0.20700
C429        C  0.96418547  0.82568807  0.44595507    -0.54100
C430        C  0.95699472  0.83052329  0.43159700     0.09900
C431        C  0.98291099  0.84881971  0.44450960    -0.53600
C432        C  0.97590535  0.85383547  0.43023093     0.10400
H433        H  0.95261396  0.85550909  0.47058600     0.15000
H434        H  0.95197819  0.85340200  0.41733840     0.00700
H435        H  0.96500500  0.81304354  0.44984226     0.15300
H436        H  0.99562529  0.85130367  0.44761115     0.15100
C437        C  0.04349774  0.95193203  0.35077660     0.86800
C438        C  0.05853327  0.95375228  0.36201717    -0.53400
C439        C  0.06566036  0.93921327  0.36633014     0.09800
C440        C  0.05693993  0.92410227  0.35884516     0.20700
C441        C  0.04992838  0.94203504  0.33603782    -0.54100
C442        C  0.05694372  0.92738829  0.34014248     0.09900
C443        C  0.03194381  0.94023843  0.35987623    -0.53600
C444        C  0.03877646  0.92568383  0.36416330     0.10400
H445        H  0.06317040  0.96545697  0.36622341     0.15000
H446        H  0.06263654  0.91226978  0.36220847     0.00700
H447        H  0.04880270  0.94618606  0.32346717     0.15300
H448        H  0.01936415  0.94346682  0.36288690     0.15100
C449        C  0.96228658  0.15625266  0.46783477     0.86800
C450        C  0.96375534  0.14443388  0.45318346    -0.53400
C451        C  0.94904658  0.13960537  0.44665511     0.09800
C452        C  0.93411166  0.14733504  0.45544916     0.20700
C453        C  0.95207721  0.17059854  0.46127010    -0.54100
C454        C  0.93723449  0.16599614  0.45482578     0.09900
C455        C  0.95091789  0.14746755  0.47996925    -0.53600
C456        C  0.93616871  0.14274786  0.47364993     0.10400
H457        H  0.97538960  0.14007543  0.44852188     0.15000
H458        H  0.92214727  0.14369308  0.45014349     0.00700
H459        H  0.95610871  0.18324789  0.46197433     0.15300
H460        H  0.95451493  0.14497223  0.49251009     0.15100
C461        C  0.85354908  0.04383120  0.53500203     0.86800
C462        C  0.86505805  0.04138503  0.54974823    -0.53400
C463        C  0.86937605  0.05556307  0.55767247     0.09800
C464        C  0.86153583  0.07098056  0.55004048     0.20700
C465        C  0.83879013  0.05313682  0.54208857    -0.54100
C466        C  0.84280580  0.06743357  0.54988874     0.09900
C467        C  0.86246053  0.05630018  0.52413536    -0.53600
C468        C  0.86675086  0.07048404  0.53188220     0.10400
H469        H  0.86960636  0.02956389  0.55353500     0.15000
H470        H  0.86484967  0.08254166  0.55634694     0.00700
H471        H  0.82621854  0.04893564  0.54065817     0.15300
H472        H  0.86538272  0.05388682  0.51136768     0.15100
C473        C  0.85035550  0.96040438  0.45634289     0.86800
C474        C  0.83605183  0.95357192  0.44607999    -0.53400
C475        C  0.84086259  0.94630317  0.43163281     0.09800
C476        C  0.85971260  0.94670571  0.42896831     0.20700
C477        C  0.86191445  0.94571331  0.45864417    -0.54100
C478        C  0.86700075  0.93855809  0.44432777     0.09900
C479        C  0.85959681  0.97188226  0.44474322    -0.53600
C480        C  0.86453040  0.96486041  0.43044395     0.10400
H481        H  0.82333400  0.95454777  0.44993429     0.15000
H482        H  0.86390865  0.94117294  0.41734442     0.00700
H483        H  0.86574963  0.94140542  0.47053937     0.15300
H484        H  0.86234271  0.98451145  0.44788198     0.15100
C485        C  0.96231612  0.03276289  0.35091714     0.86800
C486        C  0.95265228  0.03962416  0.33628319    -0.53400
C487        C  0.93785662  0.04654436  0.34047005     0.09800
C488        C  0.93427462  0.04597632  0.35915572     0.20700
C489        C  0.96388924  0.04731186  0.36274828    -0.54100
C490        C  0.94929386  0.05434882  0.36717171     0.09900
C491        C  0.95041060  0.02098852  0.35938549    -0.53600
C492        C  0.93574259  0.02770726  0.36380193     0.10400
H493        H  0.95707211  0.03883799  0.32375183     0.15000
H494        H  0.92242074  0.05157611  0.36271064     0.00700
H495        H  0.97558163  0.05171366  0.36722930     0.15300
H496        H  0.95367020  0.00839774  0.36199944     0.15100
In497      In  0.34300121  0.74759280  0.62582563     1.36900
C498        C  0.35184307  0.77634471  0.63947554     0.77900
O499        O  0.32126743  0.76051671  0.61422675    -0.60500
O500        O  0.31834276  0.73597527  0.62210660    -0.51400
C501        C  0.36166278  0.73341764  0.60228427     0.70600
O502        O  0.36580078  0.74656472  0.60927211    -0.46300
C503        C  0.34366559  0.72867131  0.65211129     0.75300
O504        O  0.35685380  0.76267852  0.64443772    -0.58100
O505        O  0.33187199  0.73818209  0.64924951    -0.48200
O506        O  0.34308399  0.77554736  0.62675175    -0.54600
C507        C  0.31174393  0.74841758  0.61592802     0.85500
O508        O  0.34758148  0.72854881  0.60620160    -0.56500
O509        O  0.35509936  0.72904852  0.64171131    -0.59800
In510      In  0.16610439  0.74368150  0.63008189     1.36900
C511        C  0.15877595  0.71356909  0.64112800     0.77900
O512        O  0.18795370  0.73514529  0.61534112    -0.60500
O513        O  0.19033922  0.75670364  0.62976053    -0.51400
C514        C  0.14879995  0.75938221  0.60687996     0.70600
O515        O  0.14679861  0.74427535  0.60950363    -0.46300
C516        C  0.16299685  0.75908998  0.65843763     0.75300
O517        O  0.17121252  0.71641406  0.63234301    -0.58100
O518        O  0.17547775  0.75069274  0.65493435    -0.48200
O519        O  0.14939456  0.72567834  0.64290034    -0.54600
C520        C  0.19713342  0.74664562  0.62022377     0.85500
O521        O  0.15993518  0.76577311  0.61532841    -0.56500
O522        O  0.15196146  0.75918208  0.64766855    -0.59800
In523      In  0.34704914  0.87233368  0.74782723     1.36900
C524        C  0.35429709  0.85878631  0.71874666     0.77900
O525        O  0.36017238  0.85681371  0.76631662    -0.60500
O526        O  0.33625203  0.84962877  0.75911378    -0.51400
C527        C  0.36558403  0.89684952  0.76003324     0.70600
O528        O  0.37013228  0.88840608  0.74792560    -0.46300
C529        C  0.31554903  0.88092554  0.74727429     0.75300
O530        O  0.36057068  0.85418339  0.73203815    -0.58100
O531        O  0.32285412  0.87667466  0.76015894    -0.48200
O532        O  0.34513672  0.87115346  0.72005578    -0.54600
C533        C  0.34850840  0.84684097  0.76801725     0.85500
O534        O  0.35113542  0.89395595  0.76454654    -0.56500
O535        O  0.32455349  0.88165679  0.73467194    -0.59800
In536      In  0.16950179  0.86998720  0.75316577     1.36900
C537        C  0.16225377  0.85832024  0.78307912     0.77900
O538        O  0.15717654  0.85453231  0.73424528    -0.60500
O539        O  0.17778148  0.84444284  0.74632973    -0.51400
C540        C  0.15143358  0.89393447  0.73947031     0.70600
O541        O  0.14743272  0.88729900  0.75284693    -0.46300
C542        C  0.20055491  0.87970380  0.75146282     0.75300
O543        O  0.15320307  0.85610467  0.77077876    -0.58100
O544        O  0.19395972  0.87056341  0.74091427    -0.48200
O545        O  0.17422679  0.86778029  0.78050126    -0.54600
C546        C  0.16659743  0.84247943  0.73589313     0.85500
O547        O  0.16506996  0.88929513  0.73400157    -0.56500
O548        O  0.19111941  0.88439382  0.76286606    -0.59800
In549      In  0.34389580  0.74737967  0.87619875     1.36900
C550        C  0.35246165  0.71945176  0.86140606     0.77900
O551        O  0.32219574  0.73385395  0.88705014    -0.60500
O552        O  0.31929416  0.75882575  0.88062636    -0.51400
C553        C  0.36193274  0.76060258  0.90035293     0.70600
O554        O  0.36522522  0.74672489  0.89443368    -0.46300
C555        C  0.34540446  0.76669405  0.85024407     0.75300
O556        O  0.35856421  0.73314514  0.85787121    -0.58100
O557        O  0.33286589  0.75822874  0.85351986    -0.48200
O558        O  0.34280750  0.71965970  0.87352744    -0.54600
C559        C  0.31269889  0.74600293  0.88610218     0.85500
O560        O  0.34897155  0.76675761  0.89492783    -0.56500
O561        O  0.35720066  0.76499721  0.86001458    -0.59800
In562      In  0.16770966  0.74773074  0.87611125     1.36900
C563        C  0.16196074  0.77808057  0.86445946     0.77900
O564        O  0.18830739  0.75699734  0.89195279    -0.60500
O565        O  0.19256932  0.73615032  0.87679437    -0.51400
C566        C  0.15064638  0.73238273  0.89980582     0.70600
O567        O  0.14703074  0.74665964  0.89517770    -0.46300
C568        C  0.16428076  0.73115697  0.84831598     0.75300
O569        O  0.15200962  0.76638246  0.86287482    -0.58100
O570        O  0.17745441  0.73818427  0.85228411    -0.48200
O571        O  0.17417241  0.77474513  0.87325823    -0.54600
C572        C  0.19831987  0.74622812  0.88701938     0.85500
O573        O  0.16321367  0.72663447  0.89303580    -0.56500
O574        O  0.15275296  0.73265668  0.85851048    -0.59800
In575      In  0.16662127  0.62239991  0.75219054     1.36900
C576        C  0.15954523  0.63350861  0.72202615     0.77900
O577        O  0.15306076  0.64046071  0.76777697    -0.60500
O578        O  0.17704245  0.64672990  0.75960904    -0.51400
C579        C  0.14812810  0.59980831  0.76772628     0.70600
O580        O  0.14539798  0.60394303  0.75310713    -0.46300
C581        C  0.19765943  0.61261005  0.75554077     0.75300
O582        O  0.17099974  0.62347429  0.72463070    -0.58100
O583        O  0.19073190  0.62298519  0.76461378    -0.48200
O584        O  0.15100654  0.63670969  0.73448014    -0.54600
C585        C  0.16455345  0.65079617  0.76777175     0.85500
O586        O  0.16061019  0.60643241  0.77380723    -0.56500
O587        O  0.18854285  0.60660416  0.74449630    -0.59800
In588      In  0.34336595  0.62300570  0.75412539     1.36900
C589        C  0.35362227  0.63720216  0.78158583     0.77900
O590        O  0.35549634  0.64076118  0.73724230    -0.60500
O591        O  0.32968791  0.64234952  0.73994166    -0.51400
C592        C  0.36260046  0.59996351  0.74067148     0.70600
O593        O  0.36440273  0.60436035  0.75543432    -0.46300
C594        C  0.31242127  0.61256352  0.75847688     0.75300
O595        O  0.35777585  0.64202785  0.76755076    -0.58100
O596        O  0.32238628  0.60520513  0.74921081    -0.48200
O597        O  0.34562089  0.62392839  0.78176732    -0.54600
C598        C  0.34249375  0.64800484  0.73340341     0.85500
O599        O  0.35063382  0.60654299  0.73359381    -0.56500
O600        O  0.31849302  0.62459709  0.76595730    -0.59800
C601        C  0.46041707  0.95983297  0.84826958     0.86800
C602        C  0.46218260  0.94568077  0.86053021    -0.53400
C603        C  0.44772265  0.93811641  0.86461460     0.09800
C604        C  0.43267451  0.94558060  0.85582093     0.20700
C605        C  0.45158801  0.95221353  0.83349888    -0.54100
C606        C  0.43691712  0.94490847  0.83731230     0.09900
C607        C  0.44774027  0.97127683  0.85604537    -0.53600
C608        C  0.43320342  0.96395784  0.85999636     0.10400
H609        H  0.47384075  0.94208091  0.86568091     0.15000
H610        H  0.42084896  0.93960410  0.85896574     0.00700
H611        H  0.45618168  0.95326598  0.82104832     0.15300
H612        H  0.45018992  0.98415576  0.85827055     0.15100
C613        C  0.35196813  0.03172581  0.95357089     0.86800
C614        C  0.36481059  0.04550935  0.95501230    -0.53400
C615        C  0.36941140  0.05225646  0.94036068     0.09800
C616        C  0.36045246  0.04457882  0.92553034     0.20700
C617        C  0.33757244  0.03949860  0.94425976    -0.54100
C618        C  0.34186910  0.04624557  0.92944681     0.09900
C619        C  0.35944574  0.01954690  0.94145108    -0.53600
C620        C  0.36380055  0.02605967  0.92672331     0.10400
H621        H  0.37005688  0.04943690  0.96654282     0.15000
H622        H  0.36423640  0.04999120  0.91370875     0.00700
H623        H  0.32508492  0.03930307  0.94891315     0.15300
H624        H  0.36117951  0.00674472  0.94447643     0.15100
C625        C  0.54255576  0.04013405  0.84474664     0.86800
C626        C  0.55049236  0.04916878  0.83021295    -0.53400
C627        C  0.55777622  0.06372394  0.83441830     0.09800
C628        C  0.55670465  0.06763794  0.85296354     0.20700
C629        C  0.55656026  0.03820870  0.85724440    -0.54100
C630        C  0.56403262  0.05255867  0.86168621     0.09900
C631        C  0.53094576  0.05267488  0.85252005    -0.53600
C632        C  0.53819545  0.06707921  0.85684163     0.10400
H633        H  0.54971852  0.04477536  0.81768176     0.15000
H634        H  0.56268864  0.07931702  0.85640334     0.00700
H635        H  0.56022548  0.02656202  0.86226023     0.15300
H636        H  0.51802268  0.05012848  0.85461545     0.15100
C637        C  0.47530011  0.14983893  0.95317158     0.86800
C638        C  0.46795960  0.16456555  0.94420403    -0.53400
C639        C  0.46069083  0.16074577  0.92954704     0.09800
C640        C  0.46124193  0.14215577  0.92549073     0.20700
C641        C  0.46095244  0.13769002  0.95494175    -0.54100
C642        C  0.45357315  0.13348395  0.94049483     0.09900
C643        C  0.48686566  0.14192445  0.94065375    -0.53600
C644        C  0.47963621  0.13786106  0.92615959     0.10400
H645        H  0.46898756  0.17695410  0.94888491     0.15000
H646        H  0.45532612  0.13872831  0.91379006     0.00700
H647        H  0.45708377  0.13256102  0.96654509     0.15300
H648        H  0.49970256  0.13951917  0.94325689     0.15100
C649        C  0.55600955  0.15064198  0.03463845     0.86800
C650        C  0.55342487  0.13853325  0.04879375    -0.53400
C651        C  0.56752263  0.13402182  0.05662486     0.09800
C652        C  0.58304173  0.14231994  0.04956938     0.20700
C653        C  0.56515706  0.16518159  0.04246535    -0.54100
C654        C  0.57942658  0.16094370  0.05029772     0.09900
C655        C  0.56874775  0.14243151  0.02351977    -0.53600
C656        C  0.58292371  0.13807453  0.03116512     0.10400
H657        H  0.54155240  0.13373048  0.05229141     0.15000
H658        H  0.59448376  0.13867337  0.05583911     0.00700
H659        H  0.56084050  0.17768620  0.04150026     0.15300
H660        H  0.56645545  0.14001145  0.01064725     0.15100
C661        C  0.66265721  0.04019708  0.96668074     0.86800
C662        C  0.65036782  0.03797944  0.95253782    -0.53400
C663        C  0.64600907  0.05215882  0.94484141     0.09800
C664        C  0.65453714  0.06741999  0.95216687     0.20700
C665        C  0.67728230  0.04921343  0.95891183    -0.54100
C666        C  0.67311166  0.06356891  0.95136278     0.09900
C667        C  0.65465384  0.05282781  0.97806691    -0.53600
C668        C  0.65043936  0.06714288  0.97062834     0.10400
H669        H  0.64548342  0.02623498  0.94885944     0.15000
H670        H  0.65114349  0.07897392  0.94601447     0.00700
H671        H  0.68982336  0.04482119  0.95971241     0.15300
H672        H  0.65246976  0.05045526  0.99096736     0.15100
C673        C  0.55158047  0.03043552  0.15514808     0.86800
C674        C  0.56127387  0.03772074  0.16957474    -0.53400
C675        C  0.57611052  0.04438418  0.16516610     0.09800
C676        C  0.57967632  0.04321690  0.14656935     0.20700
C677        C  0.55011448  0.04463466  0.14285278    -0.54100
C678        C  0.56482692  0.05138601  0.13827986     0.09900
C679        C  0.56337537  0.01830583  0.14704159    -0.53600
C680        C  0.57803668  0.02490067  0.14246849     0.10400
H681        H  0.55690197  0.03724703  0.18213319     0.15000
H682        H  0.59163147  0.04854873  0.14289872     0.00700
H683        H  0.53848950  0.04892503  0.13815779     0.15300
H684        H  0.56015665  0.00559741  0.14478237     0.15100
C685        C  0.66165791  0.95958283  0.04726737     0.86800
C686        C  0.67600469  0.95260795  0.05718625    -0.53400
C687        C  0.67139652  0.94550834  0.07166444     0.09800
C688        C  0.65264027  0.94605329  0.07477992     0.20700
C689        C  0.64975808  0.94503059  0.04510402    -0.54100
C690        C  0.64493485  0.93788425  0.05955662     0.09900
C691        C  0.65279206  0.97115851  0.05902910    -0.53600
C692        C  0.64807159  0.96426625  0.07346382     0.10400
H693        H  0.68867189  0.95354388  0.05314520     0.15000
H694        H  0.64881911  0.94042781  0.08647938     0.00700
H695        H  0.64546933  0.94078349  0.03329640     0.15300
H696        H  0.65032248  0.98381784  0.05592196     0.15100
C697        C  0.35073146  0.95108164  0.03458160     0.86800
C698        C  0.33628958  0.94146085  0.04213277    -0.53400
C699        C  0.34086243  0.92717103  0.04966263     0.09800
C700        C  0.35956952  0.92402149  0.04896638     0.20700
C701        C  0.36277290  0.95359096  0.04893230    -0.54100
C702        C  0.36753591  0.93943571  0.05642123     0.09900
C703        C  0.35926851  0.93876611  0.02321616    -0.53600
C704        C  0.36384329  0.92456532  0.03062564     0.10400
H705        H  0.32363595  0.94546167  0.04119555     0.15000
H706        H  0.36339810  0.91259495  0.05506841     0.00700
H707        H  0.36732285  0.96540575  0.05286157     0.15300
H708        H  0.36153405  0.94122750  0.01034058     0.15100
C709        C  0.46065304  0.83991965  0.96971703     0.86800
C710        C  0.45076619  0.82559256  0.96255051    -0.53400
C711        C  0.43638488  0.83018975  0.95524563     0.09800
C712        C  0.43338798  0.84884446  0.95563581     0.20700
C713        C  0.46313063  0.85167300  0.95519635    -0.54100
C714        C  0.44887151  0.85655878  0.94783131     0.09900
C715        C  0.44862573  0.84877011  0.98115566    -0.53600
C716        C  0.43432432  0.85343030  0.97389147     0.10400
H717        H  0.45462834  0.81293409  0.96357556     0.15000
H718        H  0.42178189  0.85250016  0.94968282     0.00700
H719        H  0.47505523  0.85590673  0.95114506     0.15300
H720        H  0.45136688  0.85121187  0.99393937     0.15100
C721        C  0.54110963  0.83875175  0.05038002     0.86800
C722        C  0.55591583  0.85030012  0.04851186    -0.53400
C723        C  0.56277203  0.85525016  0.06296795     0.09800
C724        C  0.55406463  0.84794400  0.07812133     0.20700
C725        C  0.54761716  0.82446398  0.06071425    -0.54100
C726        C  0.55448755  0.82916801  0.07535682     0.09900
C727        C  0.52921402  0.84779841  0.06169185    -0.53600
C728        C  0.53582360  0.85263373  0.07621507     0.10400
H729        H  0.56055277  0.85422708  0.03673957     0.15000
H730        H  0.55944775  0.85200938  0.08986101     0.00700
H731        H  0.54676215  0.81182360  0.05673228     0.15300
H732        H  0.51659135  0.85032443  0.05828452     0.15100
C733        C  0.47039356  0.94989432  0.15674303     0.86800
C734        C  0.45626582  0.95195291  0.14441656    -0.53400
C735        C  0.44902932  0.93762848  0.13966188     0.09800
C736        C  0.45651528  0.92244135  0.14796804     0.20700
C737        C  0.46266712  0.94043606  0.17110806    -0.54100
C738        C  0.45540854  0.92593327  0.16660677     0.09900
C739        C  0.48211445  0.93767764  0.14866274    -0.53600
C740        C  0.47499792  0.92327497  0.14410058     0.10400
H741        H  0.45231900  0.96364479  0.13968049     0.15000
H742        H  0.45064417  0.91084189  0.14411937     0.00700
H743        H  0.46330947  0.94471701  0.18367632     0.15300
H744        H  0.49501182  0.94039956  0.14662528     0.15100
In745      In  0.84385057  0.24814109  0.37678442     1.36900
C746        C  0.85106957  0.27770847  0.36448148     0.77900
O747        O  0.85710538  0.23007938  0.36085164    -0.60500
O748        O  0.83352809  0.23793052  0.35328065    -0.51400
C749        C  0.86332526  0.23615078  0.40052790     0.70600
O750        O  0.86762873  0.24785659  0.39147689    -0.46300
C751        C  0.81253558  0.24762147  0.38633278     0.75300
O752        O  0.84307204  0.27610742  0.37765821    -0.58100
O753        O  0.81996890  0.23505525  0.38132085    -0.48200
O754        O  0.85582943  0.26443951  0.35827807    -0.54600
C755        C  0.84588258  0.22915758  0.35032077     0.85500
O756        O  0.84876687  0.23159134  0.39836714    -0.56500
O757        O  0.82127206  0.26037358  0.38707336    -0.59800
In758      In  0.66735314  0.24686510  0.37299408     1.36900
C759        C  0.66204220  0.21730267  0.35966602     0.77900
O760        O  0.65249195  0.26053304  0.35453648    -0.60500
O761        O  0.67810072  0.25816841  0.35035874    -0.51400
C762        C  0.64904512  0.26062861  0.39683516     0.70600
O763        O  0.64685085  0.24600630  0.39233788    -0.46300
C764        C  0.69788627  0.24824551  0.38386451     0.75300
O765        O  0.65195419  0.22889802  0.35874421    -0.58100
O766        O  0.69155511  0.25940535  0.37531880    -0.48200
O767        O  0.67430412  0.22029631  0.36855603    -0.54600
C768        C  0.66456892  0.26361960  0.34540297     0.85500
O769        O  0.66092473  0.26754887  0.38990858    -0.56500
O770        O  0.68836001  0.23653119  0.38746799    -0.59800
In771      In  0.84444128  0.12072863  0.25265963     1.36900
C772        C  0.85096620  0.13180074  0.22239354     0.77900
O773        O  0.82337725  0.10557515  0.24274257    -0.60500
O774        O  0.81964764  0.11921811  0.26464967    -0.51400
C775        C  0.86337548  0.09831848  0.26778791     0.70600
O776        O  0.86673563  0.10358491  0.25365175    -0.46300
C777        C  0.84649418  0.14890283  0.26885436     0.75300
O778        O  0.85987363  0.13495959  0.23456479    -0.58100
O779        O  0.83405614  0.14500485  0.26058880    -0.48200
O780        O  0.83951734  0.12183876  0.22532844    -0.54600
C781        C  0.81350580  0.10994423  0.25390787     0.85500
O782        O  0.84989703  0.10337404  0.27329083    -0.56500
O783        O  0.85786191  0.13852667  0.26868567    -0.59800
In784      In  0.66771219  0.12097384  0.25145959     1.36900
C785        C  0.66003433  0.13477816  0.28021994     0.77900
O786        O  0.68960561  0.11012092  0.26443639    -0.60500
O787        O  0.69192192  0.11627078  0.23926311    -0.51400
C788        C  0.64919746  0.09704832  0.23814624     0.70600
O789        O  0.64589002  0.10312760  0.25197210    -0.46300
C790        C  0.66682820  0.14771927  0.23317573     0.75300
O791        O  0.65307386  0.13842736  0.26697595    -0.58100
O792        O  0.67944693  0.14349508  0.24094383    -0.48200
O793        O  0.67005465  0.12307607  0.27909713    -0.54600
C794        C  0.69880515  0.11093209  0.25197424     0.85500
O795        O  0.66238072  0.10218383  0.23208647    -0.56500
O796        O  0.65464595  0.13837787  0.23486495    -0.59800
In797      In  0.84398489  0.24297138  0.13193346     1.36900
C798        C  0.85037348  0.21282076  0.14303283     0.77900
O799        O  0.85740583  0.26122844  0.14755202    -0.60500
O800        O  0.83551975  0.25061757  0.15694041    -0.51400
C801        C  0.86206249  0.25622445  0.10773036     0.70600
O802        O  0.86631532  0.24325873  0.11487649    -0.46300
C803        C  0.81296951  0.24693155  0.12292385     0.75300
O804        O  0.85945822  0.22497707  0.14576318    -0.58100
O805        O  0.82000718  0.25553615  0.13363260    -0.48200
O806        O  0.83852556  0.21571330  0.13356363    -0.54600
C807        C  0.84719920  0.26047302  0.15915015     0.85500
O808        O  0.84835458  0.26159955  0.11223374    -0.56500
O809        O  0.82186118  0.23594879  0.11649455    -0.59800
In810      In  0.66655073  0.25055273  0.12951994     1.36900
C811        C  0.65629795  0.27976494  0.14022237     0.77900
O812        O  0.65237033  0.23634160  0.14839711    -0.60500
O813        O  0.67827100  0.23697090  0.15029188    -0.51400
C814        C  0.64931288  0.23525424  0.10600065     0.70600
O815        O  0.64770758  0.25042511  0.10867930    -0.46300
C816        C  0.69831817  0.25256702  0.12125916     0.75300
O817        O  0.66648847  0.27847073  0.12858541    -0.58100
O818        O  0.68814738  0.24448915  0.11286907    -0.48200
O819        O  0.65029256  0.26638175  0.14492816    -0.54600
C820        C  0.66490615  0.23194075  0.15614515     0.85500
O821        O  0.66008319  0.22849058  0.11464009    -0.56500
O822        O  0.69212625  0.26002664  0.13327714    -0.59800
In823      In  0.84256962  0.37038507  0.25538159     1.36900
C824        C  0.85057101  0.35859608  0.28501050     0.77900
O825        O  0.82017967  0.38339681  0.26575122    -0.60500
O826        O  0.81778638  0.37062067  0.24327175    -0.51400
C827        C  0.86109366  0.39396588  0.24127356     0.70600
O828        O  0.86367938  0.38902511  0.25566014    -0.46300
C829        C  0.84577165  0.34320657  0.23795401     0.75300
O830        O  0.83998925  0.36967528  0.28316513    -0.58100
O831        O  0.83378544  0.34548924  0.24747843    -0.48200
O832        O  0.85783299  0.35454208  0.27200166    -0.54600
C833        C  0.81080516  0.37887332  0.25429283     0.85500
O834        O  0.84847062  0.38790352  0.23485970    -0.56500
O835        O  0.85616491  0.35462091  0.23763364    -0.59800
In836      In  0.66365981  0.37232349  0.24954688     1.36900
C837        C  0.65497060  0.36082900  0.22015240     0.77900
O838        O  0.68627386  0.38347941  0.23765920    -0.60500
O839        O  0.68801264  0.37498016  0.26213873    -0.51400
C840        C  0.64570274  0.39559101  0.26450584     0.70600
O841        O  0.64215465  0.39039742  0.25040711    -0.46300
C842        C  0.66212693  0.34424181  0.26566013     0.75300
O843        O  0.66558393  0.37199491  0.22180462    -0.58100
O844        O  0.67431895  0.34833425  0.25710385    -0.48200
O845        O  0.64788027  0.35675359  0.23324383    -0.54600
C846        C  0.69533179  0.38107115  0.24997510     0.85500
O847        O  0.65893249  0.39006547  0.26999359    -0.56500
O848        O  0.65056305  0.35442463  0.26588677    -0.59800
C849        C  0.46016254  0.65081136  0.53590480     0.86800
C850        C  0.45032688  0.66500878  0.54346790    -0.53400
C851        C  0.43596793  0.66026086  0.55091336     0.09800
C852        C  0.43306847  0.64156698  0.55031522     0.20700
C853        C  0.46284384  0.63879605  0.55022584    -0.54100
C854        C  0.44866227  0.63384552  0.55781335     0.09900
C855        C  0.44800367  0.64210251  0.52455629    -0.53600
C856        C  0.43380102  0.63730854  0.53194247     0.10400
H857        H  0.45410554  0.67769793  0.54236535     0.15000
H858        H  0.42154672  0.63768782  0.55641866     0.00700
H859        H  0.47480142  0.63441785  0.55395321     0.15300
H860        H  0.45060125  0.63987297  0.51169236     0.15100
C861        C  0.34947752  0.54209734  0.46917863     0.86800
C862        C  0.33485314  0.55124831  0.46175816    -0.53400
C863        C  0.33901055  0.56570180  0.45433401     0.09800
C864        C  0.35764510  0.56946159  0.45482509     0.20700
C865        C  0.36159671  0.54001151  0.45480380    -0.54100
C866        C  0.36606513  0.55431663  0.44729380     0.09900
C867        C  0.35773641  0.55457443  0.48054644    -0.53600
C868        C  0.36210984  0.56887053  0.47310588     0.10400
H869        H  0.32229622  0.54689552  0.46281616     0.15000
H870        H  0.36107766  0.58108805  0.44879837     0.00700
H871        H  0.36638049  0.52830215  0.45093105     0.15300
H872        H  0.36030653  0.55198557  0.49332089     0.15100
C873        C  0.53828929  0.65273919  0.45149410     0.86800
C874        C  0.55227178  0.64038826  0.45408856    -0.53400
C875        C  0.56003608  0.63539766  0.44010429     0.09800
C876        C  0.55317790  0.64363812  0.42457940     0.20700
C877        C  0.54641136  0.66696440  0.44211580    -0.54100
C878        C  0.55429664  0.66225653  0.42794158     0.09900
C879        C  0.52700906  0.64459399  0.43891975    -0.53600
C880        C  0.53462316  0.63996950  0.42476368     0.10400
H881        H  0.55596109  0.63597858  0.46595595     0.15000
H882        H  0.55923084  0.63960094  0.41313864     0.00700
H883        H  0.54581809  0.67953248  0.44635122     0.15300
H884        H  0.51402502  0.64261233  0.44121011     0.15100
C885        C  0.46774844  0.54430852  0.34520241     0.86800
C886        C  0.45360112  0.54233642  0.35753325    -0.53400
C887        C  0.44623292  0.55668344  0.36209051     0.09800
C888        C  0.45373975  0.57184588  0.35347625     0.20700
C889        C  0.46018350  0.55348468  0.33071241    -0.54100
C890        C  0.45294054  0.56803023  0.33489130     0.09900
C891        C  0.47936829  0.55668593  0.35323261    -0.53600
C892        C  0.47220091  0.57113724  0.35751550     0.10400
H893        H  0.45003327  0.53064932  0.36257725     0.15000
H894        H  0.44781858  0.58355702  0.35691301     0.00700
H895        H  0.46110020  0.54912144  0.31817414     0.15300
H896        H  0.49222009  0.55402080  0.35544854     0.15100
C897        C  0.54913346  0.46447327  0.34733718     0.86800
C898        C  0.55802983  0.45612386  0.33296889    -0.53400
C899        C  0.57217558  0.44822557  0.33732388     0.09800
C900        C  0.57593460  0.44930819  0.35582250     0.20700
C901        C  0.54638275  0.45073776  0.35993059    -0.54100
C902        C  0.56040204  0.44276225  0.36445774     0.09900
C903        C  0.56214410  0.47558597  0.35516813    -0.53600
C904        C  0.57621615  0.46773382  0.35954248     0.10400
H905        H  0.55371518  0.45688533  0.32042945     0.15000
H906        H  0.58732470  0.44297395  0.35943254     0.00700
H907        H  0.53451267  0.44760545  0.36499186     0.15300
H908        H  0.56021835  0.48857595  0.35715766     0.15100
C909        C  0.65973427  0.53167985  0.45363813     0.86800
C910        C  0.67430665  0.53868078  0.44393003    -0.53400
C911        C  0.66998054  0.54612777  0.42958425     0.09800
C912        C  0.65127541  0.54605376  0.42644314     0.20700
C913        C  0.64809719  0.54632210  0.45615826    -0.54100
C914        C  0.64347716  0.55387968  0.44189553     0.09900
C915        C  0.65075204  0.52053930  0.44155488    -0.53600
C916        C  0.64642809  0.52786189  0.42726047     0.10400
H917        H  0.68694994  0.53727285  0.44783703     0.15000
H918        H  0.64770918  0.55200614  0.41482680     0.00700
H919        H  0.64386183  0.55031097  0.46808831     0.15300
H920        H  0.64805378  0.50782648  0.44428641     0.15100
C921        C  0.66091428  0.44914228  0.53267699     0.86800
C922        C  0.64865768  0.45112389  0.54696959    -0.53400
C923        C  0.64389182  0.43677427  0.55410495     0.09800
C924        C  0.65210448  0.42166394  0.54635142     0.20700
C925        C  0.67533432  0.43953749  0.54009385    -0.54100
C926        C  0.67079037  0.42502634  0.54730184     0.09900
C927        C  0.65261204  0.43705018  0.52092418    -0.53600
C928        C  0.64793831  0.42270147  0.52800643     0.10400
H929        H  0.64394666  0.46280107  0.55100326     0.15000
H930        H  0.64828569  0.41000405  0.55206363     0.00700
H931        H  0.68794489  0.44377924  0.53939479     0.15300
H932        H  0.65023286  0.43988712  0.50815931     0.15100
C933        C  0.55000139  0.34069771  0.46494748     0.86800
C934        C  0.54751706  0.35253958  0.45058744    -0.53400
C935        C  0.56172211  0.35744228  0.44313691     0.09800
C936        C  0.57721003  0.34971439  0.45069372     0.20700
C937        C  0.55984458  0.32637201  0.45762797    -0.54100
C938        C  0.57426361  0.33103579  0.45024781     0.09900
C939        C  0.56212520  0.34947541  0.47634856    -0.53600
C940        C  0.57642939  0.35416551  0.46897112     0.10400
H941        H  0.53560335  0.35691319  0.44683559     0.15000
H942        H  0.58873176  0.35358736  0.44466524     0.00700
H943        H  0.55599267  0.31371176  0.45878442     0.15300
H944        H  0.55941225  0.35183396  0.48916025     0.15100
C945        C  0.46067279  0.53140502  0.65872579     0.86800
C946        C  0.46350140  0.54634387  0.64749894    -0.53400
C947        C  0.44937057  0.55409277  0.64277345     0.09800
C948        C  0.43367282  0.54621292  0.65000803     0.20700
C949        C  0.45065782  0.53821458  0.67326773    -0.54100
C950        C  0.43642462  0.54598935  0.66880650     0.09900
C951        C  0.44855636  0.52058070  0.64930505    -0.53600
C952        C  0.43441737  0.52811942  0.64478593     0.10400
H953        H  0.47549121  0.55028759  0.64330322     0.15000
H954        H  0.42220274  0.55236945  0.64623334     0.00700
H955        H  0.45436600  0.53662557  0.68591988     0.15300
H956        H  0.45115184  0.50789079  0.64632324     0.15100
C957        C  0.35184296  0.46113246  0.54950427     0.86800
C958        C  0.36366195  0.44668237  0.54715750    -0.53400
C959        C  0.36863629  0.43945254  0.56137516     0.09800
C960        C  0.36108052  0.44747049  0.57684956     0.20700
C961        C  0.33755807  0.45404082  0.55957954    -0.54100
C962        C  0.34223717  0.44686906  0.57403305     0.09900
C963        C  0.36069591  0.47275608  0.56122299    -0.53600
C964        C  0.36557796  0.46582004  0.57557791     0.10400
H965        H  0.36776852  0.44247498  0.53525921     0.15000
H966        H  0.36508837  0.44170876  0.58840922     0.00700
H967        H  0.32488139  0.45490945  0.55564323     0.15300
H968        H  0.36306034  0.48544133  0.55810851     0.15100
C969        C  0.54016977  0.44825491  0.65457030     0.86800
C970        C  0.54816286  0.43890991  0.66883473    -0.53400
C971        C  0.55561328  0.42454270  0.66426606     0.09800
C972        C  0.55458460  0.42107591  0.64565591     0.20700
C973        C  0.55414336  0.45062412  0.64206472    -0.54100
C974        C  0.56173546  0.43647091  0.63725479     0.09900
C975        C  0.52868230  0.43574797  0.64650164    -0.53600
C976        C  0.53608403  0.42151011  0.64185209     0.10400
H977        H  0.54740714  0.44301944  0.68146565     0.15000
H978        H  0.56066865  0.40953234  0.64195771     0.00700
H979        H  0.55755901  0.46242063  0.63713898     0.15300
H980        H  0.51576247  0.43820542  0.64444811     0.15100
C981        C  0.47040706  0.33878736  0.54698987     0.86800
C982        C  0.46347054  0.32408844  0.55645913    -0.53400
C983        C  0.45641244  0.32808856  0.57116876     0.09800
C984        C  0.45671131  0.34669380  0.57482659     0.20700
C985        C  0.45579503  0.35054550  0.54524017    -0.54100
C986        C  0.44860649  0.35484858  0.55979589     0.09900
C987        C  0.48201236  0.34733690  0.55906387    -0.53600
C988        C  0.47497015  0.35149176  0.57363862     0.10400
H989        H  0.46462979  0.31157545  0.55213322     0.15000
H990        H  0.45090504  0.35002678  0.58665773     0.00700
H991        H  0.45170528  0.35539666  0.53363324     0.15300
H992        H  0.49471966  0.35009623  0.55608288     0.15100
In993      In  0.25892352  0.36900999  0.84068425     1.36900
C994        C  0.28771455  0.35679584  0.85093125     0.77900
O995        O  0.24445450  0.34890303  0.85258250    -0.60500
O996        O  0.24082309  0.35328055  0.82724457    -0.51400
C997        C  0.24262861  0.39103819  0.85929843     0.70600
O998        O  0.25672642  0.38587331  0.86305976    -0.46300
C999        C  0.26525944  0.37722029  0.80956263     0.75300
O1000       O  0.28655397  0.37118654  0.84537365    -0.58100
O1001       O  0.26014731  0.38758481  0.81987907    -0.48200
O1002       O  0.27421353  0.34939274  0.85221168    -0.54600
C1003       C  0.23710590  0.34491949  0.83962555     0.85500
O1004       O  0.23749935  0.38572444  0.84578617    -0.56500
O1005       O  0.26776040  0.36321409  0.81537742    -0.59800
In1006     In  0.25631731  0.36643151  0.66356571     1.36900
C1007       C  0.22555599  0.35620174  0.65739961     0.77900
O1008       O  0.27343814  0.35078670  0.64866412    -0.60500
O1009       O  0.26284265  0.34065656  0.67014783    -0.51400
C1010       C  0.27106053  0.39057990  0.64660338     0.70600
O1011       O  0.25626015  0.38669952  0.64403325    -0.46300
C1012       C  0.26137725  0.37431738  0.69495537     0.75300
O1013       O  0.22939249  0.36387912  0.67024365    -0.58100
O1014       O  0.26890316  0.36310018  0.68751148    -0.48200
O1015       O  0.23700943  0.35513931  0.64705217    -0.54600
C1016       C  0.27252968  0.33877418  0.65825808     0.85500
O1017       O  0.27757128  0.38288713  0.65816249    -0.56500
O1018       O  0.25101221  0.38189906  0.68630000    -0.59800
In1019     In  0.38490829  0.25186034  0.84193484     1.36900
C1020       C  0.37154811  0.27961403  0.85313095     0.77900
O1021       O  0.40347707  0.25096452  0.82097970    -0.60500
O1022       O  0.37995257  0.26103571  0.81664791    -0.51400
C1023       C  0.40742191  0.23562812  0.85949325     0.70600
O1024       O  0.40497025  0.25075466  0.86171566    -0.46300
C1025       C  0.36008961  0.23088371  0.84075891     0.75300
O1026       O  0.38515831  0.27959911  0.84563816    -0.58100
O1027       O  0.36747290  0.23571958  0.82809796    -0.48200
O1028       O  0.36596145  0.26560125  0.85619188    -0.54600
C1029       C  0.39360894  0.25692720  0.81070865     0.85500
O1030       O  0.39901407  0.22946803  0.84817090    -0.56500
O1031       O  0.36542425  0.23670380  0.85401195    -0.59800
In1032     In  0.38199356  0.24259633  0.66479441     1.36900
C1033       C  0.37092815  0.21241982  0.65775002     0.77900
O1034       O  0.39724406  0.23601138  0.68733915    -0.60500
O1035       O  0.37953679  0.25494160  0.68908108    -0.51400
C1036       C  0.40617754  0.25567260  0.64620537     0.70600
O1037       O  0.39973001  0.24203732  0.64283144    -0.46300
C1038       C  0.35470488  0.25978159  0.66010854     0.75300
O1039       O  0.37994538  0.21530715  0.66996442    -0.58100
O1040       O  0.35590279  0.24931408  0.67133326    -0.48200
O1041       O  0.36862648  0.22460069  0.64866456    -0.54600
C1042       C  0.39031996  0.24664084  0.69628817     0.85500
O1043       O  0.40121222  0.26171169  0.65948307    -0.56500
O1044       O  0.36737741  0.26143080  0.65140748    -0.59800
In1045     In  0.25495962  0.12696545  0.84094804     1.36900
C1046       C  0.22609935  0.13805452  0.85208849     0.77900
O1047       O  0.26957753  0.14655884  0.85355498    -0.60500
O1048       O  0.27246752  0.14381344  0.82788105    -0.51400
C1049       C  0.27057545  0.10371378  0.85821783     0.70600
O1050       O  0.25557411  0.10685987  0.86057323    -0.46300
C1051       C  0.24950654  0.12024077  0.80956181     0.75300
O1052       O  0.22707814  0.12560259  0.84297324    -0.58100
O1053       O  0.25501006  0.10959932  0.81931072    -0.48200
O1054       O  0.23976428  0.14391000  0.85633018    -0.54600
C1055       C  0.27669751  0.15126253  0.84067790     0.85500
O1056       O  0.27693296  0.11162804  0.84664879    -0.56500
O1057       O  0.24623163  0.13384107  0.81604205    -0.59800
In1058     In  0.25923510  0.12489947  0.66294632     1.36900
C1059       C  0.29046910  0.13301697  0.65648715     0.77900
O1060       O  0.24342733  0.14038765  0.64669795    -0.60500
O1061       O  0.25328261  0.15109242  0.66828424    -0.51400
C1062       C  0.24395306  0.10062439  0.64704682     0.70600
O1063       O  0.25869991  0.10436689  0.64406947    -0.46300
C1064       C  0.25465558  0.11895461  0.69470760     0.75300
O1065       O  0.28649848  0.12450544  0.66873484    -0.58100
O1066       O  0.24712354  0.12993130  0.68699083    -0.48200
O1067       O  0.27877995  0.13609147  0.64695455    -0.54600
C1068       C  0.24439504  0.15281585  0.65579678     0.85500
O1069       O  0.23755253  0.10860773  0.65854396    -0.56500
O1070       O  0.26454711  0.11064081  0.68612606    -0.59800
In1071     In  0.13130797  0.24255416  0.84179126     1.36900
C1072       C  0.14318471  0.21444422  0.85310360     0.77900
O1073       O  0.11350556  0.24096569  0.82034893    -0.60500
O1074       O  0.13833189  0.23372257  0.81711272    -0.51400
C1075       C  0.10979456  0.25971499  0.85968269     0.70600
O1076       O  0.11207954  0.24462079  0.86204882    -0.46300
C1077       C  0.15608759  0.26332054  0.84080151     0.75300
O1078       O  0.12952535  0.21503402  0.84580973    -0.58100
O1079       O  0.14724428  0.26041784  0.82851412    -0.48200
O1080       O  0.14972245  0.22815176  0.85570393    -0.54600
C1081       C  0.12454363  0.23598455  0.81063246     0.85500
O1082       O  0.11747781  0.26544367  0.84763911    -0.56500
O1083       O  0.15227454  0.25559354  0.85360220    -0.59800
In1084     In  0.13416733  0.24553708  0.66424723     1.36900
C1085       C  0.14410297  0.27629680  0.65875053     0.77900
O1086       O  0.11921474  0.25112336  0.68701693    -0.60500
O1087       O  0.13858163  0.23371233  0.68832725    -0.51400
C1088       C  0.10978198  0.23095502  0.64763587     0.70600
O1089       O  0.11442689  0.24535334  0.64446354    -0.46300
C1090       C  0.16188925  0.22999480  0.65720011     0.75300
O1091       O  0.13594701  0.27235470  0.67127472    -0.58100
O1092       O  0.16012362  0.23852471  0.66993099    -0.48200
O1093       O  0.14560538  0.26501297  0.64836665    -0.54600
C1094       C  0.12749819  0.24146623  0.69582213     0.85500
O1095       O  0.11666220  0.22473928  0.65988487    -0.56500
O1096       O  0.14950962  0.22942709  0.64802516    -0.59800
In1097     In  0.37803800  0.83603169  0.25506907     1.36900
C1098       C  0.36591554  0.84350013  0.28486606     0.77900
O1099       O  0.36168232  0.84975136  0.23821981    -0.60500
O1100       O  0.35393505  0.82616692  0.24597462    -0.51400
C1101       C  0.40091207  0.85435538  0.24007195     0.70600
O1102       O  0.39633011  0.85735911  0.25454924    -0.46300
C1103       C  0.38858169  0.80519877  0.25347706     0.75300
O1104       O  0.37545705  0.83161845  0.28244196    -0.58100
O1105       O  0.39351913  0.81499753  0.26444223    -0.48200
O1106       O  0.36345681  0.85211881  0.27237063    -0.54600
C1107       C  0.35112555  0.83854716  0.23726023     0.85500
O1108       O  0.39500999  0.84144577  0.23420173    -0.56500
O1109       O  0.37878361  0.81132114  0.24329054    -0.59800
In1110     In  0.37736870  0.65923614  0.25037279     1.36900
C1111       C  0.36414765  0.65168310  0.22128559     0.77900
O1112       O  0.36372879  0.64732000  0.27107320    -0.60500
O1113       O  0.35349083  0.66872112  0.26075405    -0.51400
C1114       C  0.40254267  0.64077668  0.26104633     0.70600
O1115       O  0.39211398  0.63540968  0.25101012    -0.46300
C1116       C  0.38601101  0.69075170  0.25045428     0.75300
O1117       O  0.37657249  0.66082873  0.22264383    -0.58100
O1118       O  0.38272352  0.68299717  0.26339095    -0.48200
O1119       O  0.35931933  0.64547784  0.23456511    -0.54600
C1120       C  0.35229723  0.65763123  0.27135965     0.85500
O1121       O  0.40113830  0.65577762  0.26402340    -0.56500
O1122       O  0.38538984  0.68227833  0.23752503    -0.59800
In1123     In  0.25375102  0.83633806  0.12761086     1.36900
C1124       C  0.22510020  0.84554001  0.14100333     0.77900
O1125       O  0.24193176  0.81547211  0.11362049    -0.60500
O1126       O  0.26421872  0.81099537  0.12625735    -0.51400
C1127       C  0.26836500  0.85450966  0.10429070     0.70600
O1128       O  0.25430869  0.85794727  0.10981614    -0.46300
C1129       C  0.27220764  0.83748726  0.15418477     0.75300
O1130       O  0.22590759  0.83497545  0.12975297    -0.58100
O1131       O  0.26206008  0.82609410  0.15170324    -0.48200
O1132       O  0.23861350  0.85221697  0.14435178    -0.54600
C1133       C  0.25275493  0.80521409  0.11769144     0.85500
O1134       O  0.27403448  0.84127657  0.10957019    -0.56500
O1135       O  0.27263789  0.84834588  0.14328722    -0.59800
In1136     In  0.25548209  0.65977790  0.12782358     1.36900
C1137       C  0.28512575  0.65155292  0.13916235     0.77900
O1138       O  0.26496921  0.68133356  0.11329536    -0.60500
O1139       O  0.24346110  0.68447317  0.12775547    -0.51400
C1140       C  0.24156069  0.64235969  0.10347715     0.70600
O1141       O  0.25596859  0.63955754  0.10834813    -0.46300
C1142       C  0.23899311  0.65619230  0.15572539     0.75300
O1143       O  0.28278019  0.66432142  0.13086931    -0.58100
O1144       O  0.24872232  0.66795412  0.15338244    -0.48200
O1145       O  0.27274073  0.64239016  0.14036136    -0.54600
C1146       C  0.25381986  0.69090170  0.11823379     0.85500
O1147       O  0.23492002  0.65443678  0.11031661    -0.56500
O1148       O  0.23780407  0.64635001  0.14391312    -0.59800
In1149     In  0.13329077  0.83667084  0.25265636     1.36900
C1150       C  0.14561273  0.84463969  0.22314682     0.77900
O1151       O  0.14678937  0.84824862  0.27363308    -0.60500
O1152       O  0.15871727  0.82941762  0.26024595    -0.51400
C1153       C  0.10929767  0.85590762  0.26493162     0.70600
O1154       O  0.11837955  0.86037034  0.25324420    -0.46300
C1155       C  0.12522625  0.80482801  0.25357273     0.75300
O1156       O  0.13378330  0.83475790  0.22472844    -0.58100
O1157       O  0.13260588  0.81199286  0.26508293    -0.48200
O1158       O  0.15023488  0.85108041  0.23636282    -0.54600
C1159       C  0.15943264  0.83961527  0.27181105     0.85500
O1160       O  0.11132377  0.84123850  0.26902064    -0.56500
O1161       O  0.12140489  0.81403115  0.24177335    -0.59800
In1162     In  0.13152609  0.65843044  0.25547066     1.36900
C1163       C  0.14459915  0.64901763  0.28424629     0.77900
O1164       O  0.14693658  0.64610454  0.23637535    -0.60500
O1165       O  0.15602424  0.66801868  0.24703242    -0.51400
C1166       C  0.10705959  0.64090568  0.24171890     0.70600
O1167       O  0.11390650  0.63670088  0.25487747    -0.46300
C1168       C  0.12242198  0.68981836  0.25589243     0.75300
O1169       O  0.13341264  0.65964465  0.28335174    -0.58100
O1170       O  0.11964202  0.68038193  0.26784165    -0.48200
O1171       O  0.14812334  0.64246128  0.27072263    -0.54600
C1172       C  0.15827870  0.65656845  0.23692787     0.85500
O1173       O  0.11167430  0.65458599  0.23649160    -0.56500
O1174       O  0.12932511  0.68307572  0.24383131    -0.59800
In1175     In  0.25746157  0.83394518  0.37992550     1.36900
C1176       C  0.28679982  0.84189002  0.36708392     0.77900
O1177       O  0.26836787  0.81176515  0.39227320    -0.60500
O1178       O  0.24482498  0.80963497  0.38127870    -0.51400
C1179       C  0.24452462  0.85085679  0.40508432     0.70600
O1180       O  0.25866582  0.85394533  0.39953160    -0.46300
C1181       C  0.23933948  0.83808317  0.35336000     0.75300
O1182       O  0.28463168  0.82962345  0.37617545    -0.58100
O1183       O  0.24817060  0.82561331  0.35534153    -0.48200
O1184       O  0.27429147  0.85076285  0.36551183    -0.54600
C1185       C  0.25627419  0.80266333  0.38889261     0.85500
O1186       O  0.23785860  0.83855197  0.39873418    -0.56500
O1187       O  0.23986370  0.84833333  0.36485905    -0.59800
In1188     In  0.25249756  0.65767355  0.38050200     1.36900
C1189       C  0.22363155  0.64939051  0.36675407     0.77900
O1190       O  0.24065797  0.67960293  0.39291049    -0.60500
O1191       O  0.26531658  0.68150963  0.38470464    -0.51400
C1192       C  0.26578244  0.63934791  0.40433756     0.70600
O1193       O  0.25196977  0.63586667  0.39828924    -0.46300
C1194       C  0.27155573  0.65675120  0.35401681     0.75300
O1195       O  0.22452167  0.65930230  0.37861962    -0.58100
O1196       O  0.26190799  0.66845359  0.35692149    -0.48200
O1197       O  0.23717120  0.64308952  0.36281246    -0.54600
C1198       C  0.25326933  0.68849686  0.39134212     0.85500
O1199       O  0.27180486  0.65243017  0.39908056    -0.56500
O1200       O  0.27113971  0.64538883  0.36440856    -0.59800
C1201       C  0.26322981  0.76022196  0.39644307     0.20700
C1202       C  0.27240948  0.74572150  0.39700907    -0.39200
C1203       C  0.26326675  0.73115680  0.39768931     0.19700
C1204       C  0.24626319  0.73101702  0.39794330     0.22300
C1205       C  0.23708868  0.74551415  0.39714457    -0.39700
C1206       C  0.24622941  0.76007094  0.39629568     0.21100
N1207       N  0.26899326  0.77555488  0.39465815    -0.33000
C1208       C  0.25557044  0.78517824  0.39305770    -0.10500
C1209       C  0.24115796  0.77597775  0.39403484    -0.29300
N1210       N  0.24049842  0.71559368  0.39715606    -0.45900
C1211       C  0.25391535  0.70588686  0.39598071    -0.05200
C1212       C  0.26832941  0.71513565  0.39648002    -0.22600
H1213       H  0.28568347  0.74574553  0.39631334     0.19200
H1214       H  0.22381399  0.74542894  0.39655796     0.18000
H1215       H  0.22868064  0.78028067  0.39265352     0.14300
H1216       H  0.28078520  0.71080557  0.39489378     0.14200
H1217       H  0.28127722  0.77914077  0.39369655     0.32300
H1218       H  0.22823024  0.71199769  0.39610313     0.35100
C1219       C  0.19357172  0.63764134  0.33704540     0.20700
C1220       C  0.18861484  0.63088113  0.32200574    -0.39200
C1221       C  0.17388367  0.63689927  0.31549681     0.19700
C1222       C  0.16468161  0.64875879  0.32338648     0.22300
C1223       C  0.16959228  0.65545498  0.33855784    -0.39700
C1224       C  0.18442806  0.64946066  0.34507021     0.21100
N1225       N  0.20807096  0.63541188  0.34454235    -0.33000
C1226       C  0.20841768  0.64594203  0.35739786    -0.10500
C1227       C  0.19373379  0.65478536  0.35829061    -0.29300
N1228       N  0.15227740  0.65379618  0.31369969    -0.45900
C1229       C  0.15368633  0.64520370  0.29949667    -0.05200
C1230       C  0.16692612  0.63440693  0.30028585    -0.22600
H1231       H  0.19618838  0.62223031  0.31537798     0.19200
H1232       H  0.16285018  0.66527194  0.34439342     0.18000
H1233       H  0.19086197  0.66472983  0.36658245     0.14300
H1234       H  0.17164984  0.62675037  0.29052504     0.14200
H1235       H  0.21767149  0.62798300  0.34045113     0.32300
H1236       H  0.14408969  0.66331946  0.31613512     0.35100
C1237       C  0.18917122  0.84911006  0.30223295     0.20700
C1238       C  0.19519215  0.85655730  0.31647428    -0.39200
C1239       C  0.20928386  0.84943383  0.32313118     0.19700
C1240       C  0.21683716  0.83593953  0.31612914     0.22300
C1241       C  0.21101386  0.82870921  0.30168605    -0.39700
C1242       C  0.19687791  0.83579607  0.29505595     0.21100
N1243       N  0.17504292  0.85247312  0.29454315    -0.33000
C1244       C  0.17378041  0.84120432  0.28242956    -0.10500
C1245       C  0.18722329  0.83071659  0.28221383    -0.29300
N1246       N  0.22893100  0.83041846  0.32578005    -0.45900
C1247       C  0.22900908  0.84049267  0.33896370    -0.05200
C1248       C  0.21710666  0.85260961  0.33768057    -0.22600
H1249       H  0.18890308  0.86662679  0.32238936     0.19200
H1250       H  0.21658017  0.81786823  0.29646455     0.18000
H1251       H  0.18919343  0.82025451  0.27430598     0.14300
H1252       H  0.21396945  0.86186644  0.34665357     0.14200
H1253       H  0.16648464  0.86144200  0.29773079     0.32300
H1254       H  0.23620044  0.82007348  0.32386098     0.35100
C1255       C  0.11868415  0.76234156  0.26257877     0.20700
C1256       C  0.11720914  0.74827033  0.27241670    -0.39200
C1257       C  0.11679350  0.73322384  0.26400730     0.19700
C1258       C  0.11798351  0.73233946  0.24710987     0.22300
C1259       C  0.11922027  0.74638141  0.23729345    -0.39700
C1260       C  0.11938662  0.76139053  0.24566393     0.21100
N1261       N  0.12037421  0.77797671  0.26757352    -0.33000
C1262       C  0.12186725  0.78705297  0.25373110    -0.10500
C1263       C  0.12123019  0.77713280  0.23982501    -0.29300
N1264       N  0.11912566  0.71670382  0.24214802    -0.45900
C1265       C  0.11865623  0.70746679  0.25591328    -0.05200
C1266       C  0.11693013  0.71731445  0.26982192    -0.22600
H1267       H  0.11695126  0.74895553  0.28565693     0.19200
H1268       H  0.12047829  0.74564582  0.22410922     0.18000
H1269       H  0.12271007  0.78086084  0.22719158     0.14300
H1270       H  0.11711481  0.71344863  0.28249188     0.14200
H1271       H  0.12076337  0.78220138  0.27965183     0.32300
H1272       H  0.12101067  0.71259764  0.23016172     0.35100
C1273       C  0.21632082  0.66049249  0.19280764     0.20700
C1274       C  0.20936630  0.66903342  0.20604280    -0.39200
C1275       C  0.19556504  0.66166730  0.21326254     0.19700
C1276       C  0.18925817  0.64690593  0.20774094     0.22300
C1277       C  0.19625332  0.63833916  0.19462248    -0.39700
C1278       C  0.20996178  0.64571861  0.18737647     0.21100
N1279       N  0.22831081  0.66569982  0.18273129    -0.33000
C1280       C  0.22932923  0.65424822  0.17074253    -0.10500
C1281       C  0.21828886  0.64150423  0.17335718    -0.29300
N1282       N  0.17541835  0.64306520  0.21579020    -0.45900
C1283       C  0.17284914  0.65547946  0.22647220    -0.05200
C1284       C  0.18518366  0.66727869  0.22537984    -0.22600
H1285       H  0.21391479  0.68085862  0.20995837     0.19200
H1286       H  0.19096092  0.62711732  0.18992839     0.18000
H1287       H  0.21585640  0.63117003  0.16540603     0.14300
H1288       H  0.18604784  0.67870025  0.23205668     0.14200
H1289       H  0.23461937  0.67682315  0.18335913     0.32300
H1290       H  0.16789183  0.63289672  0.21377222     0.35100
C1291       C  0.18685082  0.84465137  0.16269070     0.20700
C1292       C  0.17223944  0.83740382  0.16851604    -0.39200
C1293       C  0.16599723  0.84372153  0.18335079     0.19700
C1294       C  0.17378174  0.85629381  0.19166910     0.22300
C1295       C  0.18834649  0.86347262  0.18589152    -0.39700
C1296       C  0.19455128  0.85718217  0.17113946     0.21100
N1297       N  0.19620197  0.83972796  0.14994525    -0.33000
C1298       C  0.21001264  0.84905927  0.15044881    -0.10500
C1299       C  0.20931003  0.86018469  0.16340791    -0.29300
N1300       N  0.16660770  0.85892003  0.20627062    -0.45900
C1301       C  0.15423362  0.84787632  0.20750993    -0.05200
C1302       C  0.15329495  0.83828704  0.19331919    -0.22600
H1303       H  0.16660230  0.82708133  0.16238182     0.19200
H1304       H  0.19483626  0.87273775  0.19282792     0.18000
H1305       H  0.21891372  0.86841856  0.16744985     0.14300
H1306       H  0.14537322  0.82785161  0.19120501     0.14200
H1307       H  0.19390920  0.82982433  0.14216839     0.32300
H1308       H  0.17064443  0.86697843  0.21536506     0.35100
C1309       C  0.25995069  0.76287084  0.10962446     0.20700
C1310       C  0.26945919  0.74864908  0.10788481    -0.39200
C1311       C  0.26092170  0.73376939  0.10918948     0.19700
C1312       C  0.24420796  0.73312507  0.11227013     0.22300
C1313       C  0.23461926  0.74735465  0.11357643    -0.39700
C1314       C  0.24312262  0.76224418  0.11200293     0.21100
N1315       N  0.26541300  0.77837284  0.11067214    -0.33000
C1316       C  0.25195685  0.78773038  0.11341059    -0.10500
C1317       C  0.23778733  0.77814183  0.11415681    -0.29300
N1318       N  0.23942106  0.71763610  0.11517378    -0.45900
C1319       C  0.25313432  0.70834141  0.11376357    -0.05200
C1320       C  0.26674442  0.71793195  0.10978698    -0.22600
H1321       H  0.28266302  0.74912939  0.10641473     0.19200
H1322       H  0.22163026  0.74688165  0.11638206     0.18000
H1323       H  0.22548173  0.78212923  0.11718414     0.14300
H1324       H  0.27939450  0.71401308  0.10880683     0.14200
H1325       H  0.27762090  0.78229814  0.11021529     0.32300
H1326       H  0.22770421  0.71371466  0.11864879     0.35100
C1327       C  0.33648512  0.64067530  0.18913915     0.20700
C1328       C  0.32292744  0.63256905  0.18226554    -0.39200
C1329       C  0.31648347  0.63951665  0.16795621     0.19700
C1330       C  0.32294184  0.65359659  0.16106717     0.22300
C1331       C  0.33658514  0.66167149  0.16790816    -0.39700
C1332       C  0.34316164  0.65460206  0.18214617     0.21100
N1333       N  0.34376515  0.63738050  0.20352473    -0.33000
C1334       C  0.35526011  0.64919652  0.20573088    -0.10500
C1335       C  0.35535168  0.66010352  0.19257200    -0.29300
N1336       N  0.31329219  0.65891283  0.14881392    -0.45900
C1337       C  0.30053541  0.64823411  0.14800358    -0.05200
C1338       C  0.30227623  0.63582103  0.15957190    -0.22600
H1339       H  0.31731143  0.62205684  0.18807880     0.19200
H1340       H  0.34126709  0.67303255  0.16294110     0.18000
H1341       H  0.36247826  0.67123506  0.19141703     0.14300
H1342       H  0.29346976  0.62634136  0.16256058     0.14200
H1343       H  0.34055187  0.62812679  0.21174508     0.32300
H1344       H  0.31457511  0.66985736  0.14234689     0.35100
C1345       C  0.31802444  0.66371584  0.29798300     0.20700
C1346       C  0.30499617  0.67220430  0.30539081    -0.39200
C1347       C  0.29721421  0.66411981  0.31843410     0.19700
C1348       C  0.30206151  0.64877117  0.32367273     0.22300
C1349       C  0.31508556  0.64031109  0.31629418    -0.39700
C1350       C  0.32286679  0.64839277  0.30329521     0.21100
N1351       N  0.32770757  0.66889032  0.28567073    -0.33000
C1352       C  0.33880770  0.65678979  0.28325348    -0.10500
C1353       C  0.33618644  0.64381539  0.29397977    -0.29300
N1354       N  0.29319823  0.64402629  0.33671550    -0.45900
C1355       C  0.28267679  0.65645789  0.33985304    -0.05200
C1356       C  0.28472498  0.66918151  0.32867645    -0.22600
H1357       H  0.30136501  0.68430428  0.30146904     0.19200
H1358       H  0.31905700  0.62843341  0.32055182     0.18000
H1359       H  0.34324634  0.63266123  0.29498440     0.14300
H1360       H  0.27833200  0.68077148  0.32843645     0.14200
H1361       H  0.32703912  0.68007129  0.27953876     0.32300
H1362       H  0.29453326  0.63320347  0.34335807     0.35100
C1363       C  0.30197845  0.84618911  0.18464659     0.20700
C1364       C  0.31487723  0.85483113  0.19193026    -0.39200
C1365       C  0.32176495  0.84748962  0.20573047     0.19700
C1366       C  0.31632976  0.83260013  0.21177167     0.22300
C1367       C  0.30337569  0.82394356  0.20447792    -0.39700
C1368       C  0.29639033  0.83135828  0.19069702     0.21100
N1369       N  0.29382126  0.85032907  0.17106486    -0.33000
C1370       C  0.28295363  0.83807522  0.16844963    -0.10500
C1371       C  0.28410213  0.82601479  0.18042729    -0.29300
N1372       N  0.32569122  0.82776730  0.22436771    -0.45900
C1373       C  0.33710657  0.83968838  0.22624032    -0.05200
C1374       C  0.33499238  0.85223279  0.21496053    -0.22600
H1375       H  0.31943672  0.86626372  0.18700977     0.19200
H1376       H  0.29927915  0.81217440  0.20898281     0.18000
H1377       H  0.27720355  0.81471216  0.18124278     0.14300
H1378       H  0.34264918  0.86293121  0.21319729     0.14200
H1379       H  0.29574617  0.86069055  0.16383257     0.32300
H1380       H  0.32480819  0.81677713  0.23082007     0.35100
C1381       C  0.34540421  0.84081645  0.32356184     0.20700
C1382       C  0.33887206  0.83235892  0.33706165    -0.39200
C1383       C  0.32539084  0.83970799  0.34488754     0.19700
C1384       C  0.31884760  0.85440920  0.33967493     0.22300
C1385       C  0.32546639  0.86295967  0.32622541    -0.39700
C1386       C  0.33895088  0.85556326  0.31835338     0.21100
N1387       N  0.35677446  0.83532084  0.31290108    -0.33000
C1388       C  0.35746180  0.84648036  0.30065251    -0.10500
C1389       C  0.34667247  0.85941015  0.30374541    -0.29300
N1390       N  0.30479283  0.85768921  0.34779294    -0.45900
C1391       C  0.30233065  0.84494183  0.35816582    -0.05200
C1392       C  0.31505397  0.83361675  0.35683876    -0.22600
H1393       H  0.34335299  0.82043278  0.34062153     0.19200
H1394       H  0.31990640  0.87404150  0.32161544     0.18000
H1395       H  0.34384051  0.86951928  0.29569986     0.14300
H1396       H  0.31584770  0.82180567  0.36274795     0.14200
H1397       H  0.36273482  0.82402461  0.31326963     0.32300
H1398       H  0.29677655  0.86738992  0.34558172     0.35100
C1399       C  0.39358996  0.76297378  0.24366770     0.20700
C1400       C  0.39167521  0.74894493  0.23389777    -0.39200
C1401       C  0.39210890  0.73394797  0.24219606     0.19700
C1402       C  0.39411351  0.73298251  0.25899841     0.22300
C1403       C  0.39628486  0.74702364  0.26875572    -0.39700
C1404       C  0.39604355  0.76205420  0.26041689     0.21100
N1405       N  0.39174724  0.77860465  0.23897530    -0.33000
C1406       C  0.39309896  0.78776608  0.25277305    -0.10500
C1407       C  0.39606289  0.77790475  0.26637979    -0.29300
N1408       N  0.39261100  0.71739221  0.26407875    -0.45900
C1409       C  0.38977517  0.70838868  0.25038696    -0.05200
C1410       C  0.38948833  0.71827103  0.23649695    -0.22600
H1411       H  0.38933668  0.74968326  0.22087444     0.19200
H1412       H  0.39741336  0.74633583  0.28194366     0.18000
H1413       H  0.39658066  0.78169089  0.27908044     0.14300
H1414       H  0.38688754  0.71457720  0.22402897     0.14200
H1415       H  0.38875117  0.78272712  0.22725509     0.32300
H1416       H  0.39302155  0.71319145  0.27614680     0.35100
C1417       C  0.13020969  0.23247514  0.73841771     0.20700
C1418       C  0.13751317  0.22611520  0.75251890    -0.39200
C1419       C  0.12948657  0.22962310  0.76727168     0.19700
C1420       C  0.11527982  0.23886230  0.76805339     0.22300
C1421       C  0.10806109  0.24545347  0.75387605    -0.39700
C1422       C  0.11608594  0.24185717  0.73900370     0.21100
N1423       N  0.13569108  0.23098358  0.72299650    -0.33000
C1424       C  0.12509603  0.23952142  0.71357315    -0.10500
C1425       C  0.11267104  0.24654156  0.72308694    -0.29300
N1426       N  0.11075622  0.24129025  0.78377237    -0.45900
C1427       C  0.12234379  0.23370123  0.79292164    -0.05200
C1428       C  0.13409038  0.22620188  0.78303757    -0.22600
H1429       H  0.14879991  0.21915727  0.75206020     0.19200
H1430       H  0.09718709  0.25302274  0.75440795     0.18000
H1431       H  0.10267467  0.25417953  0.71895818     0.14300
H1432       H  0.14516473  0.22003383  0.78691366     0.14200
H1433       H  0.14622343  0.22478142  0.71914025     0.32300
H1434       H  0.10111715  0.24858509  0.78800931     0.35100
C1435       C  0.20063730  0.21013871  0.65750437     0.20700
C1436       C  0.21524559  0.20476676  0.66470546    -0.39200
C1437       C  0.22242099  0.19096054  0.65749716     0.19700
C1438       C  0.21562768  0.18314638  0.64404000     0.22300
C1439       C  0.20107048  0.18860823  0.63674713    -0.39700
C1440       C  0.19383422  0.20236831  0.64402767     0.21100
N1441       N  0.19044348  0.22163182  0.66335264    -0.33000
C1442       C  0.17701697  0.22104798  0.65363700    -0.10500
C1443       C  0.17873990  0.20937992  0.64129546    -0.29300
N1444       N  0.22353189  0.16908206  0.64090259    -0.45900
C1445       C  0.23520928  0.16784293  0.65261414    -0.05200
C1446       C  0.23509868  0.18137266  0.66300095    -0.22600
H1447       H  0.22009932  0.21029745  0.67574151     0.19200
H1448       H  0.19527261  0.18202993  0.62679206     0.18000
H1449       H  0.16966261  0.20567827  0.63235680     0.14300
H1450       H  0.24228611  0.18317846  0.67399387     0.14200
H1451       H  0.19207105  0.22871253  0.67389546     0.32300
H1452       H  0.22030203  0.16024322  0.63222171     0.35100
C1453       C  0.18607959  0.15598947  0.85415115     0.20700
C1454       C  0.17061723  0.16053544  0.84788917    -0.39200
C1455       C  0.16403259  0.17528705  0.85400530     0.19700
C1456       C  0.17233973  0.18472217  0.86540553     0.22300
C1457       C  0.18762471  0.18014752  0.87169586    -0.39700
C1458       C  0.19412880  0.16549338  0.86566790     0.21100
N1459       N  0.19601683  0.14391553  0.84874890    -0.33000
C1460       C  0.21048739  0.14597703  0.85676722    -0.10500
C1461       C  0.20962449  0.15915985  0.86755896    -0.29300
N1462       N  0.16493529  0.19921031  0.86751423    -0.45900
C1463       C  0.15178741  0.19922349  0.85741126    -0.05200
C1464       C  0.15062251  0.18437951  0.84892148    -0.22600
H1465       H  0.16465011  0.15365189  0.83824703     0.19200
H1466       H  0.19447369  0.18800347  0.87990965     0.18000
H1467       H  0.21954763  0.16438518  0.87466117     0.14300
H1468       H  0.14225564  0.18140665  0.83907227     0.14200
H1469       H  0.19362082  0.13573319  0.83919988     0.32300
H1470       H  0.16936726  0.20906070  0.87439210     0.35100
C1471       C  0.25317765  0.10979775  0.76724490     0.20700
C1472       C  0.26051437  0.10274546  0.75330720    -0.39200
C1473       C  0.25545902  0.10909340  0.73814847     0.19700
C1474       C  0.24394095  0.12147070  0.73703780     0.22300
C1475       C  0.23674333  0.12860884  0.75092916    -0.39700
C1476       C  0.24185342  0.12234118  0.76602641     0.21100
N1477       N  0.25662324  0.10670372  0.78305434    -0.33000
C1478       C  0.24761465  0.11753839  0.79187437    -0.10500
C1479       C  0.23823399  0.12745473  0.78168837    -0.29300
N1480       N  0.24183702  0.12599233  0.72139863    -0.45900
C1481       C  0.25218147  0.11658976  0.71241501    -0.05200
C1482       C  0.26083899  0.10578895  0.72239967    -0.22600
H1483       H  0.26979908  0.09334258  0.75421757     0.19200
H1484       H  0.22816277  0.13866113  0.75005604     0.18000
H1485       H  0.23043488  0.13757106  0.78524612     0.14300
H1486       H  0.27025670  0.09720384  0.71872102     0.14200
H1487       H  0.26527628  0.09843543  0.78752401     0.32300
H1488       H  0.23426952  0.13536340  0.71714822     0.35100
C1489       C  0.35056410  0.17364576  0.66009239     0.20700
C1490       C  0.34338011  0.16035745  0.66841461    -0.39200
C1491       C  0.33027910  0.15251464  0.66037089     0.19700
C1492       C  0.32484218  0.15750315  0.64512781     0.22300
C1493       C  0.33207480  0.17069405  0.63678200    -0.39700
C1494       C  0.34505320  0.17859448  0.64486758     0.21100
N1495       N  0.36152999  0.18446410  0.66608855    -0.33000
C1496       C  0.36282633  0.19649872  0.65472883    -0.10500
C1497       C  0.35286142  0.19314174  0.64124272    -0.29300
N1498       N  0.31076368  0.14985847  0.64119673    -0.45900
C1499       C  0.30698190  0.14009185  0.65407112    -0.05200
C1500       C  0.31904803  0.14117548  0.66616311    -0.22600
H1501       H  0.34697856  0.15708788  0.68073156     0.19200
H1502       H  0.32718228  0.17520890  0.62533963     0.18000
H1503       H  0.35054583  0.20100568  0.63085406     0.14300
H1504       H  0.31867113  0.13585857  0.67829100     0.14200
H1505       H  0.36676451  0.18436227  0.67775542     0.32300
H1506       H  0.30336703  0.15231895  0.63106454     0.35100
C1507       C  0.32734405  0.20308910  0.84826381     0.20700
C1508       C  0.31658439  0.19368812  0.85777528    -0.39200
C1509       C  0.30653274  0.18286740  0.84907378     0.19700
C1510       C  0.30712071  0.18148869  0.83216778     0.22300
C1511       C  0.31787416  0.19095053  0.82261258    -0.39700
C1512       C  0.32797006  0.20178814  0.83134718     0.21100
N1513       N  0.33853279  0.21382889  0.85370625    -0.33000
C1514       C  0.34638838  0.21934107  0.84017608    -0.10500
C1515       C  0.34012439  0.21222453  0.82597173    -0.29300
N1516       N  0.29647608  0.17005695  0.82693800    -0.45900
C1517       C  0.28908808  0.16424402  0.84064929    -0.05200
C1518       C  0.29503508  0.17189487  0.85466676    -0.22600
H1519       H  0.31621160  0.19458801  0.87100198     0.19200
H1520       H  0.31848741  0.18980695  0.80941215     0.18000
H1521       H  0.34416910  0.21416049  0.81348176     0.14300
H1522       H  0.29152773  0.16960503  0.86725508     0.14200
H1523       H  0.34089793  0.21697993  0.86588434     0.32300
H1524       H  0.29442021  0.16638259  0.81485029     0.35100
C1525       C  0.40367624  0.25097497  0.76842987     0.20700
C1526       C  0.40925704  0.24212195  0.75463526    -0.39200
C1527       C  0.40268238  0.24688776  0.73940494     0.19700
C1528       C  0.39149885  0.25954248  0.73815647     0.22300
C1529       C  0.38590777  0.26828374  0.75185527    -0.39700
C1530       C  0.39235446  0.26348171  0.76697067     0.21100
N1531       N  0.40672289  0.24790131  0.78437409    -0.33000
C1532       C  0.39702045  0.25833708  0.79301287    -0.10500
C1533       C  0.38800953  0.26829084  0.78254628    -0.29300
N1534       N  0.38626478  0.26115528  0.72268363    -0.45900
C1535       C  0.39398074  0.24942378  0.71382150    -0.05200
C1536       C  0.40446253  0.24027455  0.72380247    -0.22600
H1537       H  0.41760941  0.23190899  0.75574885     0.19200
H1538       H  0.37667207  0.27773116  0.75087868     0.18000
H1539       H  0.37861878  0.27704199  0.78589788     0.14300
H1540       H  0.41184992  0.22985333  0.72027205     0.14200
H1541       H  0.41391077  0.23845243  0.78907480     0.32300
H1542       H  0.37749331  0.26944512  0.71848544     0.35100
C1543       C  0.18757462  0.33471998  0.66232809     0.20700
C1544       C  0.17518069  0.32700277  0.67155915    -0.39200
C1545       C  0.16655840  0.31438214  0.66360541     0.19700
C1546       C  0.17009270  0.30974372  0.64766977     0.22300
C1547       C  0.18250421  0.31743178  0.63844653    -0.39700
C1548       C  0.19109758  0.33008572  0.64638779     0.21100
N1549       N  0.19865826  0.34570427  0.66772889    -0.33000
C1550       C  0.20949664  0.34795649  0.65527613    -0.10500
C1551       C  0.20504695  0.33854930  0.64166619    -0.29300
N1552       N  0.16150192  0.29628419  0.64353473    -0.45900
C1553       C  0.15246585  0.29222960  0.65691528    -0.05200
C1554       C  0.15517384  0.30334755  0.66964695    -0.22600
H1555       H  0.17295816  0.33006700  0.68427790     0.19200
H1556       H  0.18579038  0.31329942  0.62626770     0.18000
H1557       H  0.21189398  0.33701375  0.63038577     0.14300
H1558       H  0.15057815  0.30260640  0.68207914     0.14200
H1559       H  0.19956222  0.35036623  0.67961802     0.32300
H1560       H  0.16260050  0.28959041  0.63267256     0.35100
C1561       C  0.30259262  0.30881776  0.64853494     0.20700
C1562       C  0.31701682  0.30298611  0.64123708    -0.39200
C1563       C  0.32382077  0.28905311  0.64844563     0.19700
C1564       C  0.31679986  0.28142617  0.66189719     0.22300
C1565       C  0.30228213  0.28720844  0.66915325    -0.39700
C1566       C  0.29549424  0.30121393  0.66196125     0.21100
N1567       N  0.29470401  0.32274576  0.64495472    -0.33000
C1568       C  0.28257875  0.32408000  0.65624580    -0.10500
C1569       C  0.28256453  0.31083905  0.66697946    -0.29300
N1570       N  0.32657404  0.26941131  0.66740266    -0.45900
C1571       C  0.33992482  0.26959167  0.65745104    -0.05200
C1572       C  0.33855605  0.28149920  0.64538266    -0.22600
H1573       H  0.32293347  0.30928651  0.63116636     0.19200
H1574       H  0.29709196  0.28168478  0.68004393     0.18000
H1575       H  0.27482263  0.30905896  0.67762999     0.14300
H1576       H  0.34760220  0.28483916  0.63623595     0.14200
H1577       H  0.29795287  0.33128092  0.63599919     0.32300
H1578       H  0.32470983  0.26216579  0.67777128     0.35100
C1579       C  0.21056052  0.31110096  0.84658628     0.20700
C1580       C  0.20305621  0.29863505  0.85564817    -0.39200
C1581       C  0.19050722  0.29016929  0.84760653     0.19700
C1582       C  0.18585194  0.29376787  0.83170686     0.22300
C1583       C  0.19343920  0.30617476  0.82258324    -0.39700
C1584       C  0.20596453  0.31470353  0.83066838     0.21100
N1585       N  0.22230990  0.32137029  0.85173902    -0.33000
C1586       C  0.22521215  0.33154918  0.83901303    -0.10500
C1587       C  0.21534225  0.32777430  0.82560916    -0.29300
N1588       N  0.17313780  0.28439280  0.82712721    -0.45900
C1589       C  0.16969547  0.27489370  0.84026070    -0.05200
C1590       C  0.18026938  0.27804831  0.85323729    -0.22600
H1591       H  0.20648451  0.29597591  0.86816227     0.19200
H1592       H  0.18964793  0.30917973  0.81025451     0.18000
H1593       H  0.21487739  0.33395945  0.81390874     0.14300
H1594       H  0.18020142  0.27250365  0.86526760     0.14200
H1595       H  0.22788833  0.32156134  0.86324607     0.32300
H1596       H  0.16694063  0.28470370  0.81594496     0.35100
C1597       C  0.34923862  0.31728194  0.85269174     0.20700
C1598       C  0.34344908  0.33198713  0.84576244    -0.39200
C1599       C  0.32804950  0.33753220  0.85147430     0.19700
C1600       C  0.31907618  0.32887629  0.86299061     0.22300
C1601       C  0.32478986  0.31421686  0.86979743    -0.39700
C1602       C  0.34016944  0.30882639  0.86427201     0.21100
N1603       N  0.36264356  0.30859113  0.84829147    -0.33000
C1604       C  0.36193513  0.29445676  0.85701396    -0.10500
C1605       C  0.34814843  0.29429541  0.86718482    -0.29300
N1606       N  0.30413303  0.33551002  0.86508452    -0.45900
C1607       C  0.30338342  0.34856182  0.85490609    -0.05200
C1608       C  0.31818605  0.35036132  0.84631216    -0.22600
H1609       H  0.35012494  0.33829229  0.83617919     0.19200
H1610       H  0.31744008  0.30712322  0.87827834     0.18000
H1611       H  0.34377270  0.28424696  0.87464269     0.14300
H1612       H  0.32078770  0.35890533  0.83652936     0.14200
H1613       H  0.37094862  0.31144973  0.83894599     0.32300
H1614       H  0.29458837  0.33079735  0.87224607     0.35100
C1615       C  0.27393553  0.37556846  0.76675420     0.20700
C1616       C  0.27970441  0.36807635  0.75239951    -0.39200
C1617       C  0.27329138  0.37409731  0.73770414     0.19700
C1618       C  0.26188843  0.38661546  0.73723474     0.22300
C1619       C  0.25626607  0.39431384  0.75166639    -0.39700
C1620       C  0.26278786  0.38832523  0.76646495     0.21100
N1621       N  0.27686031  0.37079365  0.78219126    -0.33000
C1622       C  0.26763864  0.38056191  0.79196042    -0.10500
C1623       C  0.25880164  0.39183370  0.78262426    -0.29300
N1624       N  0.25650126  0.38887820  0.72177739    -0.45900
C1625       C  0.26453506  0.37766057  0.71245965    -0.05200
C1626       C  0.27523527  0.36840177  0.72196130    -0.22600
H1627       H  0.28802346  0.35777230  0.75269423     0.19200
H1628       H  0.24697751  0.40375636  0.75143937     0.18000
H1629       H  0.24969055  0.40044383  0.78696305     0.14300
H1630       H  0.28272979  0.35819924  0.71801195     0.14200
H1631       H  0.28403167  0.36087001  0.78582950     0.32300
H1632       H  0.24742083  0.39700484  0.71793673     0.35100
C1633       C  0.44268174  0.30404043  0.60551595     0.20700
C1634       C  0.43860449  0.30096971  0.62194225    -0.39200
C1635       C  0.43153806  0.28563770  0.62522839     0.19700
C1636       C  0.42871201  0.27412278  0.61310625     0.22300
C1637       C  0.43298308  0.27713877  0.59662276    -0.39700
C1638       C  0.44009381  0.29254316  0.59333278     0.21100
N1639       N  0.44870515  0.31803025  0.59921517    -0.33000
C1640       C  0.45008596  0.31554047  0.58283727    -0.10500
C1641       C  0.44492635  0.29968895  0.57872889    -0.29300
N1642       N  0.42032780  0.26121244  0.61923816    -0.45900
C1643       C  0.41770163  0.26465439  0.63534076    -0.05200
C1644       C  0.42471070  0.27969083  0.63948583    -0.22600
H1645       H  0.44025912  0.31010829  0.63141212     0.19200
H1646       H  0.43046376  0.26837272  0.58699323     0.18000
H1647       H  0.44438403  0.29425262  0.56664457     0.14300
H1648       H  0.42379989  0.28602576  0.65110884     0.14200
H1649       H  0.45172865  0.32860845  0.60574441     0.32300
H1650       H  0.41569355  0.25126395  0.61264969     0.35100
C1651       C  0.50667440  0.39436203  0.62367761     0.20700
C1652       C  0.49094196  0.38923851  0.61887065    -0.39200
C1653       C  0.49045356  0.37707929  0.60674665     0.19700
C1654       C  0.50457986  0.37055733  0.59994641     0.22300
C1655       C  0.52032381  0.37553318  0.60490388    -0.39700
C1656       C  0.52081091  0.38770504  0.61703129     0.21100
N1657       N  0.51036042  0.40673696  0.63384919    -0.33000
C1658       C  0.52697373  0.40810650  0.63363690    -0.10500
C1659       C  0.53394373  0.39624935  0.62345605    -0.29300
N1660       N  0.50084008  0.36021948  0.58771314    -0.45900
C1661       C  0.48420370  0.36015079  0.58665880    -0.05200
C1662       C  0.47728676  0.37039172  0.59848507    -0.22600
H1663       H  0.47989837  0.39478351  0.62374214     0.19200
H1664       H  0.53136329  0.37075619  0.59925954     0.18000
H1665       H  0.54676891  0.39475060  0.62031813     0.14300
H1666       H  0.46444818  0.37330544  0.60020285     0.14200
H1667       H  0.50196075  0.41408782  0.64012498     0.32300
H1668       H  0.50918644  0.35392926  0.58030115     0.35100
C1669       C  0.32015808  0.42847568  0.60776577     0.20700
C1670       C  0.31820581  0.42128584  0.62325825    -0.39200
C1671       C  0.30244529  0.41528015  0.62690644     0.19700
C1672       C  0.28951113  0.41631187  0.61600336     0.22300
C1673       C  0.29145914  0.42360008  0.60049024    -0.39700
C1674       C  0.30728196  0.42962834  0.59683465     0.21100
N1675       N  0.33411043  0.43446231  0.60117720    -0.33000
C1676       C  0.33020846  0.43953378  0.58583308    -0.10500
C1677       C  0.31349702  0.43673728  0.58276638    -0.29300
N1678       N  0.27614012  0.40850630  0.62197925    -0.45900
C1679       C  0.28069618  0.40238500  0.63673576    -0.05200
C1680       C  0.29695582  0.40651347  0.64022310    -0.22600
H1681       H  0.32835040  0.42003534  0.63169701     0.19200
H1682       H  0.28151716  0.42415345  0.59174220     0.18000
H1683       H  0.30678551  0.43921886  0.57163539     0.14300
H1684       H  0.30413190  0.40270287  0.65067779     0.14200
H1685       H  0.34554858  0.43494821  0.60687482     0.32300
H1686       H  0.26496552  0.40665197  0.61599921     0.35100
C1687       C  0.39837946  0.40777599  0.56937364     0.20700
C1688       C  0.40991685  0.39879216  0.57846036    -0.39200
C1689       C  0.41843798  0.38653137  0.56981416     0.19700
C1690       C  0.41572517  0.38353122  0.55336702     0.22300
C1691       C  0.40420069  0.39247359  0.54429169    -0.39700
C1692       C  0.39567873  0.40467706  0.55294355     0.21100
N1693       N  0.38896128  0.42030307  0.57461581    -0.33000
C1694       C  0.38021274  0.42529813  0.56140026    -0.10500
C1695       C  0.38410680  0.41572700  0.54767941    -0.29300
N1696       N  0.42575775  0.37168942  0.54783051    -0.45900
C1697       C  0.43501783  0.36701587  0.56082479    -0.05200
C1698       C  0.43069107  0.37598169  0.57479128    -0.22600
H1699       H  0.41222035  0.40127990  0.59127622     0.19200
H1700       H  0.40217970  0.39024783  0.53137626     0.18000
H1701       H  0.37925902  0.41671224  0.53539951     0.14300
H1702       H  0.43612330  0.37532409  0.58684202     0.14200
H1703       H  0.38884071  0.42535928  0.58636979     0.32300
H1704       H  0.42628717  0.36722082  0.53585089     0.35100
C1705       C  0.51032656  0.47834847  0.66821116     0.20700
C1706       C  0.49494662  0.48327946  0.67437411    -0.39200
C1707       C  0.48988037  0.49918979  0.67020778     0.19700
C1708       C  0.49936302  0.50939680  0.66055103     0.22300
C1709       C  0.51476837  0.50447159  0.65443784    -0.39700
C1710       C  0.51984885  0.48857800  0.65863701     0.21100
N1711       N  0.51701003  0.46329929  0.66891655    -0.33000
C1712       C  0.53079304  0.46370100  0.65948904    -0.10500
C1713       C  0.53305689  0.47949108  0.65311759    -0.29300
N1714       N  0.49091583  0.52295748  0.65647514    -0.45900
C1715       C  0.47576929  0.52138208  0.66339385    -0.05200
C1716       C  0.47489675  0.50680281  0.67236107    -0.22600
H1717       H  0.48709919  0.47501384  0.68118097     0.19200
H1718       H  0.52187236  0.51212095  0.64624056     0.18000
H1719       H  0.54230743  0.48366066  0.64457597     0.14300
H1720       H  0.46410424  0.50164993  0.67816823     0.14200
H1721       H  0.51186978  0.45300294  0.67451105     0.32300
H1722       H  0.49490577  0.53190749  0.64828686     0.35100
C1723       C  0.40781527  0.49882159  0.62566426     0.20700
C1724       C  0.40238080  0.48305191  0.62140987    -0.39200
C1725       C  0.39092312  0.48222853  0.60864493     0.19700
C1726       C  0.38535085  0.49609310  0.60076531     0.22300
C1727       C  0.39070593  0.51188985  0.60509033    -0.39700
C1728       C  0.40216114  0.51271847  0.61788020     0.21100
N1729       N  0.41945841  0.50269477  0.63659384    -0.33000
C1730       C  0.42136874  0.51917628  0.63580176    -0.10500
C1731       C  0.41061011  0.52591961  0.62438145    -0.29300
N1732       N  0.37528392  0.49201342  0.58842742    -0.45900
C1733       C  0.37445859  0.47539884  0.58829629    -0.05200
C1734       C  0.38395705  0.46886627  0.60089457    -0.22600
H1735       H  0.40710234  0.47218937  0.62729393     0.19200
H1736       H  0.38660327  0.52268974  0.59865255     0.18000
H1737       H  0.40973827  0.53858431  0.62067157     0.14300
H1738       H  0.38611771  0.45609588  0.60357238     0.14200
H1739       H  0.42596904  0.49448824  0.64388587     0.32300
H1740       H  0.36958511  0.50017660  0.58045328     0.35100
C1741       C  0.52003212  0.32700323  0.49452282     0.20700
C1742       C  0.51542188  0.32080133  0.50987678    -0.39200
C1743       C  0.50013101  0.32598216  0.51586752     0.19700
C1744       C  0.49013608  0.33653820  0.50723367     0.22300
C1745       C  0.49469750  0.34264844  0.49180004    -0.39700
C1746       C  0.51002958  0.33748708  0.48582293     0.21100
N1747       N  0.53486671  0.32581529  0.48737671    -0.33000
C1748       C  0.53453501  0.33579824  0.47413346    -0.10500
C1749       C  0.51902562  0.34305938  0.47263935    -0.29300
N1750       N  0.47742716  0.34148373  0.51656311    -0.45900
C1751       C  0.47946395  0.33420513  0.53138150    -0.05200
C1752       C  0.49333859  0.32419003  0.53120994    -0.22600
H1753       H  0.52362686  0.31336543  0.51712279     0.19200
H1754       H  0.48736133  0.35162629  0.48542470     0.18000
H1755       H  0.51517147  0.35243373  0.46418092     0.14300
H1756       H  0.49864018  0.31779656  0.54151088     0.14200
H1757       H  0.54508858  0.31968471  0.49200418     0.32300
H1758       H  0.46885643  0.35034772  0.51330355     0.35100
C1759       C  0.61475607  0.44395783  0.58658227     0.20700
C1760       C  0.60560428  0.45335291  0.59771605    -0.39200
C1761       C  0.59433431  0.44470082  0.60742199     0.19700
C1762       C  0.59228354  0.42795453  0.60620412     0.22300
C1763       C  0.60145423  0.41852272  0.59499059    -0.39700
C1764       C  0.61279041  0.42720752  0.58524651     0.21100
N1765       N  0.62609357  0.44939628  0.57592222    -0.33000
C1766       C  0.63151572  0.43605184  0.56758965    -0.10500
C1767       C  0.62347172  0.42194444  0.57313657    -0.29300
N1768       N  0.58062484  0.42275576  0.61676283    -0.45900
C1769       C  0.57516567  0.43632809  0.62473959    -0.05200
C1770       C  0.58352921  0.45022244  0.61916456    -0.22600
H1771       H  0.60708847  0.46648110  0.59868868     0.19200
H1772       H  0.59985057  0.40542056  0.59389557     0.18000
H1773       H  0.62495946  0.40953321  0.56878291     0.14300
H1774       H  0.58198331  0.46277116  0.62308792     0.14200
H1775       H  0.62983607  0.46153521  0.57454456     0.32300
H1776       H  0.57648494  0.41074675  0.61817642     0.35100
C1777       C  0.62840174  0.39599958  0.49909706     0.20700
C1778       C  0.62358710  0.39033996  0.48356674    -0.39200
C1779       C  0.61086745  0.37871897  0.48348068     0.19700
C1780       C  0.60360980  0.37315774  0.49777444     0.22300
C1781       C  0.60860207  0.37860703  0.51327061    -0.39700
C1782       C  0.62124099  0.39023604  0.51335867     0.21100
N1783       N  0.63917089  0.40801091  0.50247005    -0.33000
C1784       C  0.63886891  0.40984587  0.51900592    -0.10500
C1785       C  0.62791698  0.39887616  0.52620264    -0.29300
N1786       N  0.59084058  0.36333573  0.49443154    -0.45900
C1787       C  0.58980285  0.36267123  0.47786386    -0.05200
C1788       C  0.60227343  0.37193861  0.47059762    -0.22600
H1789       H  0.62885884  0.39513790  0.47237348     0.19200
H1790       H  0.60260733  0.37459498  0.52441538     0.18000
H1791       H  0.62458203  0.39794145  0.53900324     0.14300
H1792       H  0.60422643  0.37424329  0.45769303     0.14200
H1793       H  0.64600685  0.41475212  0.49399197     0.32300
H1794       H  0.58307216  0.35783379  0.50300461     0.35100
C1795       C  0.66248701  0.50990963  0.49208137     0.20700
C1796       C  0.65671296  0.50460184  0.50738474    -0.39200
C1797       C  0.66262739  0.48941833  0.51274419     0.19700
C1798       C  0.67337652  0.48008602  0.50354315     0.22300
C1799       C  0.67920262  0.48540397  0.48821376    -0.39700
C1800       C  0.67338076  0.50068671  0.48290717     0.21100
N1801       N  0.65718452  0.52292011  0.48352497    -0.33000
C1802       C  0.66467420  0.52199037  0.46866742    -0.10500
C1803       C  0.67503438  0.50836063  0.46798170    -0.29300
N1804       N  0.67529758  0.46520179  0.51032216    -0.45900
C1805       C  0.66549073  0.46488802  0.52382083    -0.05200
C1806       C  0.65769079  0.48003221  0.52583031    -0.22600
H1807       H  0.64756476  0.51137918  0.51422147     0.19200
H1808       H  0.68697322  0.47781266  0.48058154     0.18000
H1809       H  0.68167011  0.50386046  0.45739067     0.14300
H1810       H  0.64830948  0.48342130  0.53456430     0.14200
H1811       H  0.64802366  0.53103291  0.48722978     0.32300
H1812       H  0.68173998  0.45535065  0.50529728     0.35100
C1813       C  0.56917452  0.41074305  0.39334525     0.20700
C1814       C  0.57895066  0.40050981  0.40308870    -0.39200
C1815       C  0.57042703  0.38894524  0.41257783     0.19700
C1816       C  0.55350004  0.38771614  0.41235682     0.22300
C1817       C  0.54373498  0.39794738  0.40265828    -0.39700
C1818       C  0.55224744  0.40948682  0.39319186     0.21100
N1819       N  0.57426533  0.42271785  0.38325107    -0.33000
C1820       C  0.56046477  0.42916137  0.37656313    -0.10500
C1821       C  0.54648575  0.42118250  0.38257156    -0.29300
N1822       N  0.54830941  0.37610660  0.42275803    -0.45900
C1823       C  0.56201230  0.36986120  0.42982849    -0.05200
C1824       C  0.57607633  0.37755708  0.42366039    -0.22600
H1825       H  0.59219801  0.40154267  0.40333754     0.19200
H1826       H  0.53047219  0.39706498  0.40258329     0.18000
H1827       H  0.53377642  0.42343660  0.37952574     0.14300
H1828       H  0.58871817  0.37555917  0.42711822     0.14200
H1829       H  0.58641572  0.42626275  0.38123196     0.32300
H1830       H  0.53608684  0.37293762  0.42496779     0.35100
C1831       C  0.60514973  0.49625990  0.37605564     0.20700
C1832       C  0.61078048  0.51189660  0.38044867    -0.39200
C1833       C  0.62242317  0.51239399  0.39303085     0.19700
C1834       C  0.62813766  0.49833571  0.40047699     0.22300
C1835       C  0.62272613  0.48267545  0.39590096    -0.39700
C1836       C  0.61093022  0.48219233  0.38345485     0.21100
N1837       N  0.59263689  0.49274696  0.36600948    -0.33000
C1838       C  0.59025340  0.47636384  0.36712729    -0.10500
C1839       C  0.60165427  0.46928711  0.37767228    -0.29300
N1840       N  0.63784496  0.50210342  0.41315285    -0.45900
C1841       C  0.63822047  0.51868838  0.41395461    -0.05200
C1842       C  0.62891738  0.52556088  0.40142384    -0.22600
H1843       H  0.60575054  0.52290751  0.37512077     0.19200
H1844       H  0.62670171  0.47175745  0.40222168     0.18000
H1845       H  0.60223972  0.45666509  0.38159610     0.14300
H1846       H  0.62637469  0.53837665  0.39935393     0.43000
H1847       H  0.58570483  0.50116023  0.35937258     0.32300
H1848       H  0.64343458  0.49376166  0.42102122     0.35100
C1849       C  0.42483787  0.60840945  0.28032899     0.20700
C1850       C  0.42868456  0.59204118  0.28396925    -0.39200
C1851       C  0.43592148  0.58926805  0.29934840     0.19700
C1852       C  0.43898246  0.60180520  0.31033424     0.22300
C1853       C  0.43539919  0.61818905  0.30659749    -0.39700
C1854       C  0.42828937  0.62098173  0.29117716     0.21100
N1855       N  0.41628577  0.61403992  0.26738570    -0.33000
C1856       C  0.41429665  0.63032551  0.27000233    -0.10500
C1857       C  0.42185970  0.63509905  0.28459290    -0.29300
N1858       N  0.44513114  0.59588403  0.32443154    -0.45900
C1859       C  0.44617078  0.57942886  0.32240517    -0.05200
C1860       C  0.44058864  0.57488978  0.30684597    -0.22600
H1861       H  0.42577238  0.58212154  0.27566235     0.19200
H1862       H  0.43748698  0.62799412  0.31528174     0.18000
H1863       H  0.42133199  0.64701060  0.29038651     0.14300
H1864       H  0.43979983  0.56267522  0.30177149     0.14200
H1865       H  0.41114863  0.60705736  0.25796560     0.32300
H1866       H  0.44859566  0.60268197  0.33470624     0.35100
C1867       C  0.49757680  0.51426317  0.33241798     0.20700
C1868       C  0.51337183  0.50972415  0.32715414    -0.39200
C1869       C  0.51910027  0.49459409  0.33288426     0.19700
C1870       C  0.50974081  0.48466765  0.34295609     0.22300
C1871       C  0.49387261  0.48910273  0.34802628    -0.39700
C1872       C  0.48822528  0.50431315  0.34247073     0.21100
N1873       N  0.49057812  0.52906530  0.33095711    -0.33000
C1874       C  0.47689256  0.52880403  0.34049534    -0.10500
C1875       C  0.47483711  0.51331231  0.34752702    -0.29300
N1876       N  0.51870205  0.47209989  0.34859227    -0.45900
C1877       C  0.53403772  0.47410033  0.34228010    -0.05200
C1878       C  0.53458959  0.48785371  0.33213124    -0.22600
H1879       H  0.52110106  0.51791234  0.32012149     0.19200
H1880       H  0.48693626  0.48181747  0.35668769     0.18000
H1881       H  0.46586655  0.50947301  0.35651010     0.14300
H1882       H  0.54530995  0.49300900  0.32619470     0.14200
H1883       H  0.49563628  0.53926444  0.32511272     0.32300
H1884       H  0.51467167  0.46347116  0.35709167     0.35100
C1885       C  0.59339216  0.60715063  0.43270929     0.20700
C1886       C  0.60570076  0.59892556  0.42377150    -0.39200
C1887       C  0.61483806  0.58723579  0.43253485     0.19700
C1888       C  0.61190919  0.58402648  0.44890398     0.22300
C1889       C  0.59962619  0.59219233  0.45779669    -0.39700
C1890       C  0.59056245  0.60384641  0.44906949     0.21100
N1891       N  0.58296828  0.61875352  0.42729974    -0.33000
C1892       C  0.57344400  0.62291983  0.44036346    -0.10500
C1893       C  0.57790086  0.61375749  0.45412485    -0.29300
N1894       N  0.62191692  0.57218214  0.45437065    -0.45900
C1895       C  0.63136000  0.56760142  0.44140353    -0.05200
C1896       C  0.62729045  0.57683920  0.42755667    -0.22600
H1897       H  0.60793311  0.60136529  0.41093132     0.19200
H1898       H  0.59724945  0.58961236  0.47058738     0.18000
H1899       H  0.57258966  0.61407284  0.46627503     0.14300
H1900       H  0.63248562  0.57596165  0.41538239     0.14200
H1901       H  0.58249971  0.62354734  0.41546995     0.32300
H1902       H  0.62188470  0.56726364  0.46615914     0.35100
C1903       C  0.50501876  0.62289820  0.39726781     0.20700
C1904       C  0.48915630  0.61813600  0.39253477    -0.39200
C1905       C  0.48833157  0.60553963  0.38090421     0.19700
C1906       C  0.50228208  0.59837548  0.37440314     0.22300
C1907       C  0.51816013  0.60330765  0.37895164    -0.39700
C1908       C  0.51898444  0.61579958  0.39071438     0.21100
N1909       N  0.50894902  0.63306620  0.40954704    -0.33000
C1910       C  0.52551571  0.63229194  0.41107209    -0.10500
C1911       C  0.53226496  0.62189410  0.39927395    -0.29300
N1912       N  0.49825649  0.58565281  0.36482026    -0.45900
C1913       C  0.48162212  0.58458162  0.36527666    -0.05200
C1914       C  0.47497355  0.59694220  0.37503997    -0.22600
H1915       H  0.47826267  0.62324203  0.39817198     0.19200
H1916       H  0.52903836  0.59723704  0.37434859     0.18000
H1917       H  0.54496464  0.61822867  0.39799957     0.14300
H1918       H  0.46221116  0.59877812  0.37825692     0.14200
H1919       H  0.50068241  0.63953136  0.41689238     0.32300
H1920       H  0.50645858  0.57791983  0.35874953     0.35100
C1921       C  0.31542854  0.59946046  0.43903418     0.20700
C1922       C  0.31251521  0.61568455  0.43437930    -0.39200
C1923       C  0.29678855  0.61896939  0.42829938     0.19700
C1924       C  0.28479880  0.60703059  0.42684492     0.22300
C1925       C  0.28770218  0.59075375  0.43163021    -0.39700
C1926       C  0.30347999  0.58747378  0.43781434     0.21100
N1927       N  0.32952055  0.59322998  0.44480141    -0.33000
C1928       C  0.32662559  0.57710317  0.44742453    -0.10500
C1929       C  0.31045215  0.57307181  0.44321391    -0.29300
N1930       N  0.27144018  0.61304626  0.41920183    -0.45900
C1931       C  0.27509423  0.62887113  0.41569253    -0.05200
C1932       C  0.29069124  0.63300081  0.42139768    -0.22600
H1933       H  0.32196219  0.62499689  0.43502960     0.19200
H1934       H  0.27851038  0.58127015  0.43027207     0.18000
H1935       H  0.30459428  0.56119870  0.44386648     0.14300
H1936       H  0.29723453  0.64438931  0.41952275     0.14200
H1937       H  0.34033612  0.59972458  0.44704488     0.32300
H1938       H  0.26102547  0.60651337  0.41557659     0.35100
C1939       C  0.34812821  0.50282944  0.48962943     0.20700
C1940       C  0.35504199  0.48798168  0.49469232    -0.39200
C1941       C  0.34934863  0.48180078  0.50967440     0.19700
C1942       C  0.33762712  0.48976824  0.51898324     0.22300
C1943       C  0.33061733  0.50463303  0.51387577    -0.39700
C1944       C  0.33637027  0.51086558  0.49885092     0.21100
N1945       N  0.35327599  0.51220515  0.47712961    -0.33000
C1946       C  0.34496465  0.52655061  0.47839089    -0.10500
C1947       C  0.33408237  0.52600046  0.49169933    -0.29300
N1948       N  0.33604821  0.48255784  0.53372703    -0.45900
C1949       C  0.34690972  0.46995908  0.53391025    -0.05200
C1950       C  0.35530135  0.46909364  0.51893924    -0.22600
H1951       H  0.36493052  0.48220007  0.48796236     0.19200
H1952       H  0.32212951  0.51138141  0.52154050     0.18000
H1953       H  0.32670254  0.53595465  0.49642001     0.14300
H1954       H  0.36561095  0.46142362  0.51571272     0.14200
H1955       H  0.36298380  0.50934204  0.46929015     0.32300
H1956       H  0.32899318  0.48675008  0.54357762     0.35100
C1957       C  0.39592308  0.56398287  0.41587113     0.20700
C1958       C  0.40623149  0.57385024  0.40606687    -0.39200
C1959       C  0.41589413  0.56551025  0.39437731     0.19700
C1960       C  0.41527840  0.54869129  0.39271507     0.22300
C1961       C  0.40513649  0.53887763  0.40255214    -0.39700
C1962       C  0.39552509  0.54717172  0.41413456     0.21100
N1963       N  0.38543893  0.56879507  0.42776146    -0.33000
C1964       C  0.37833255  0.55490282  0.43364968    -0.10500
C1965       C  0.38443933  0.54119870  0.42538017    -0.29300
N1966       N  0.42556719  0.54359605  0.38091002    -0.45900
C1967       C  0.43304911  0.55719178  0.37487548    -0.05200
C1968       C  0.42724447  0.57116421  0.38299847    -0.22600
H1969       H  0.40667081  0.58701677  0.40741302     0.19200
H1970       H  0.40475251  0.52569992  0.40126653     0.18000
H1971       H  0.38121478  0.52848884  0.42718466     0.14300
H1972       H  0.43102423  0.58371669  0.38113058     0.14200
H1973       H  0.38344404  0.58079396  0.43166310     0.32300
H1974       H  0.42728713  0.53145811  0.37733007     0.35100
C1975       C  0.48877488  0.66450889  0.50492603     0.20700
C1976       C  0.49274228  0.67045572  0.48920036    -0.39200
C1977       C  0.50790497  0.66530225  0.48268731     0.19700
C1978       C  0.51821901  0.65502570  0.49124060     0.22300
C1979       C  0.51424366  0.64908004  0.50688329    -0.39700
C1980       C  0.49915754  0.65420768  0.51337935     0.21100
N1981       N  0.47430728  0.66581105  0.51281998    -0.33000
C1982       C  0.47527046  0.65601001  0.52622602    -0.10500
C1983       C  0.49082312  0.64882500  0.52709575    -0.29300
N1984       N  0.53092168  0.65033434  0.48186040    -0.45900
C1985       C  0.52877169  0.65742177  0.46695703    -0.05200
C1986       C  0.51459748  0.66713291  0.46717234    -0.22600
H1987       H  0.48425267  0.67780609  0.48219842     0.19200
H1988       H  0.52193955  0.64032978  0.51315136     0.18000
H1989       H  0.49501807  0.63956556  0.53552654     0.14300
H1990       H  0.50915839  0.67345359  0.45689978     0.14200
H1991       H  0.46384446  0.67180334  0.50855873     0.32300
H1992       H  0.53971005  0.64182039  0.48540509     0.35100
C1993       C  0.45629162  0.60741486  0.59244983     0.20700
C1994       C  0.46545717  0.60002630  0.60504712    -0.39200
C1995       C  0.45712554  0.58818467  0.61446977     0.19700
C1996       C  0.44089005  0.58414052  0.61162076     0.22300
C1997       C  0.43174507  0.59154519  0.59907018    -0.39700
C1998       C  0.44006524  0.60332545  0.58963261     0.21100
N1999       N  0.46144770  0.61870045  0.58154807    -0.33000
C2000       C  0.44838551  0.62194974  0.57172481    -0.10500
C2001       C  0.43482990  0.61252837  0.57645270    -0.29300
N2002       N  0.43596798  0.57205251  0.62169743    -0.45900
C2003       C  0.44917411  0.56809003  0.63099015    -0.05200
C2004       C  0.46260213  0.57804712  0.62687392    -0.22600
H2005       H  0.47822563  0.60304328  0.60714969     0.19200
H2006       H  0.41911468  0.58819478  0.59666933     0.18000
H2007       H  0.42280410  0.61221492  0.57087230     0.14300
H2008       H  0.47486648  0.57763470  0.63191306     0.14200
H2009       H  0.47313758  0.62393869  0.58095748     0.32300
H2010       H  0.42447882  0.56637387  0.62165961     0.35100
C2011       C  0.40656199  0.61871041  0.50289615     0.20700
C2012       C  0.40112128  0.61370901  0.48734464    -0.39200
C2013       C  0.38863144  0.60184746  0.48728107     0.19700
C2014       C  0.38214485  0.59550245  0.50161545     0.22300
C2015       C  0.38744117  0.60064713  0.51711263    -0.39700
C2016       C  0.39987617  0.61248210  0.51718299     0.21100
N2017       N  0.41915285  0.62876892  0.50631273    -0.33000
C2018       C  0.42051997  0.62887189  0.52290224    -0.10500
C2019       C  0.40854713  0.61901448  0.53008635    -0.29300
N2020       N  0.37144793  0.58345210  0.49835846    -0.45900
C2021       C  0.37108458  0.58200953  0.48181441    -0.05200
C2022       C  0.38151311  0.59343288  0.47445229    -0.22600
H2023       H  0.40662248  0.61825274  0.47615292     0.19200
H2024       H  0.38265837  0.59536086  0.52830085     0.18000
H2025       H  0.40696040  0.61621724  0.54293878     0.14300
H2026       H  0.38429578  0.59474435  0.46155344     0.14200
H2027       H  0.42655619  0.63483027  0.49779499     0.32300
H2028       H  0.36514602  0.57637533  0.50696825     0.35100
C2029       C  0.61321504  0.41774045  0.28422099     0.20700
C2030       C  0.59715766  0.42362888  0.28670621    -0.39200
C2031       C  0.59372008  0.42976457  0.30247688     0.19700
C2032       C  0.60534265  0.42987813  0.31479243     0.22300
C2033       C  0.62132287  0.42403486  0.31232537    -0.39700
C2034       C  0.62478759  0.41804668  0.29659923     0.21100
N2035       N  0.61942482  0.41053390  0.27067387    -0.33000
C2036       C  0.63503838  0.40624113  0.27454947    -0.10500
C2037       C  0.63879319  0.41083400  0.29057027    -0.29300
N2038       N  0.59911937  0.43618912  0.32866977    -0.45900
C2039       C  0.58335397  0.44026321  0.32528725    -0.05200
C2040       C  0.57954812  0.43641819  0.30900461    -0.22600
H2041       H  0.58799247  0.42332850  0.27713634     0.19200
H2042       H  0.63036853  0.42399589  0.32201447     0.18000
H2043       H  0.64998866  0.40836863  0.29723115     0.14300
H2044       H  0.56800592  0.43822510  0.30274540     0.14200
H2045       H  0.61320227  0.40798842  0.25978928     0.32300
H2046       H  0.60548256  0.43789127  0.33962032     0.35100
C2047       C  0.76834216  0.38434103  0.24446166     0.20700
C2048       C  0.75439058  0.38429872  0.23434556    -0.39200
C2049       C  0.73916999  0.38539084  0.24242016     0.19700
C2050       C  0.73796572  0.38620557  0.25931727     0.22300
C2051       C  0.75193327  0.38653520  0.26942195    -0.39700
C2052       C  0.76716804  0.38568743  0.26132805     0.21100
N2053       N  0.78406583  0.38221375  0.23985088    -0.33000
C2054       C  0.79304393  0.38244244  0.25382027    -0.10500
C2055       C  0.78294679  0.38470683  0.26749045    -0.29300
N2056       N  0.72214856  0.38546936  0.26407337    -0.45900
C2057       C  0.71317137  0.38435875  0.25013472    -0.05200
C2058       C  0.72335674  0.38443506  0.23634992    -0.22600
H2059       H  0.75530133  0.38296624  0.22118025     0.19200
H2060       H  0.75099047  0.38688826  0.28264599     0.18000
H2061       H  0.78655735  0.38468572  0.28023980     0.14300
H2062       H  0.71974581  0.38286186  0.22369372     0.14200
H2063       H  0.78840201  0.38028567  0.22794829     0.32300
H2064       H  0.71774598  0.38510707  0.27609964     0.35100
C2065       C  0.65682896  0.31845728  0.16083236     0.20700
C2066       C  0.66409480  0.33298269  0.16671619    -0.39200
C2067       C  0.65709853  0.33966358  0.18104248     0.19700
C2068       C  0.64396912  0.33231309  0.18894772     0.22300
C2069       C  0.63678785  0.31780987  0.18313854    -0.39700
C2070       C  0.64367000  0.31123894  0.16880089     0.21100
N2071       N  0.66219814  0.30877805  0.14852360    -0.33000
C2072       C  0.65247417  0.29525317  0.14880167    -0.10500
C2073       C  0.64070685  0.29647813  0.16119580    -0.29300
N2074       N  0.64074317  0.33987788  0.20322683    -0.45900
C2075       C  0.65193094  0.35210345  0.20460185    -0.05200
C2076       C  0.66223102  0.35250540  0.19087880    -0.22600
H2077       H  0.67485621  0.33828480  0.16099066     0.19200
H2078       H  0.62702879  0.31166213  0.18974141     0.18000
H2079       H  0.63206620  0.28716023  0.16505045     0.14300
H2080       H  0.67294866  0.36014984  0.18907629     0.14200
H2081       H  0.67263842  0.31063345  0.14129429     0.32300
H2082       H  0.63223465  0.33616878  0.21208047     0.35100
C2083       C  0.85656056  0.28999061  0.18971433     0.20700
C2084       C  0.86464068  0.30368148  0.19614579    -0.39200
C2085       C  0.85659784  0.31157203  0.20908095     0.19700
C2086       C  0.84166906  0.30620809  0.21524812     0.22300
C2087       C  0.83362936  0.29240339  0.20890069    -0.39700
C2088       C  0.84165239  0.28453917  0.19587265     0.21100
N2089       N  0.86082722  0.28149627  0.17630238    -0.33000
C2090       C  0.84849669  0.27066810  0.17382644    -0.10500
C2091       C  0.83641038  0.27200700  0.18587566    -0.29300
N2092       N  0.83604534  0.31657634  0.22674074    -0.45900
C2093       C  0.84748691  0.32858366  0.22776863    -0.05200
C2094       C  0.86049566  0.32586569  0.21702994    -0.22600
H2095       H  0.87599923  0.30827828  0.19097994     0.19200
H2096       H  0.82169787  0.28850545  0.21329577     0.18000
H2097       H  0.82485128  0.26547894  0.18655357     0.14300
H2098       H  0.87104200  0.33365729  0.21486753     0.14200
H2099       H  0.87102063  0.28355125  0.16877971     0.32300
H2100       H  0.82488817  0.31585719  0.23304535     0.35100
C2101       C  0.77063215  0.24541530  0.11135730     0.20700
C2102       C  0.75592842  0.23823804  0.10575930    -0.39200
C2103       C  0.74132661  0.24603311  0.11077074     0.19700
C2104       C  0.74148358  0.25985058  0.12061536     0.22300
C2105       C  0.75608234  0.26706771  0.12602963    -0.39700
C2106       C  0.77055616  0.25933615  0.12104986     0.21100
N2107       N  0.78602890  0.23951668  0.10986770    -0.33000
C2108       C  0.79561817  0.24971986  0.11886666    -0.10500
C2109       C  0.78642153  0.26230468  0.12578301    -0.29300
N2110       N  0.72620051  0.26413604  0.12497314    -0.45900
C2111       C  0.71607959  0.25309169  0.11784933    -0.05200
C2112       C  0.72501982  0.24162264  0.10875379    -0.22600
H2113       H  0.75583592  0.22705092  0.09864539     0.19200
H2114       H  0.75614398  0.27753152  0.13417994     0.18000
H2115       H  0.79063066  0.27173040  0.13411971     0.14300
H2116       H  0.72030909  0.23098522  0.10238618     0.14200
H2117       H  0.78961612  0.22873491  0.10398979     0.32300
H2118       H  0.72287870  0.27366553  0.13285334     0.35100
C2119       C  0.65723703  0.18072897  0.20663063     0.20700
C2120       C  0.64749773  0.19002666  0.19605244    -0.39200
C2121       C  0.65564045  0.20269281  0.18783316     0.19700
C2122       C  0.67222657  0.20581487  0.18998263     0.22300
C2123       C  0.68192275  0.19662164  0.20069142    -0.39700
C2124       C  0.67377636  0.18396789  0.20891487     0.21100
N2125       N  0.65263255  0.16747632  0.21514443    -0.33000
C2126       C  0.66632821  0.16231782  0.22291467    -0.10500
C2127       C  0.67976324  0.17228470  0.21940484    -0.29300
N2128       N  0.67742131  0.21733822  0.17951157    -0.45900
C2129       C  0.66408963  0.22144280  0.17057498    -0.05200
C2130       C  0.65019579  0.21282066  0.17557302    -0.22600
H2131       H  0.63468252  0.18722539  0.19392816     0.19200
H2132       H  0.69496516  0.19877958  0.20205881     0.18000
H2133       H  0.69227433  0.17089884  0.22361095     0.14300
H2134       H  0.63808864  0.21304804  0.17014319     0.14200
H2135       H  0.64098318  0.16210931  0.21543898     0.32300
H2136       H  0.68946238  0.22147861  0.17790765     0.35100
C2137       C  0.86186829  0.15814684  0.18926635     0.20700
C2138       C  0.87041490  0.17124045  0.18208257    -0.39200
C2139       C  0.86243071  0.17915521  0.16912358     0.19700
C2140       C  0.84706663  0.17439910  0.16366083     0.22300
C2141       C  0.83854138  0.16120674  0.17079506    -0.39700
C2142       C  0.84655539  0.15325227  0.18377577     0.21100
N2143       N  0.86589836  0.15014860  0.20305784    -0.33000
C2144       C  0.85308572  0.14009336  0.20647482    -0.10500
C2145       C  0.84086760  0.14151599  0.19458254    -0.29300
N2146       N  0.84130039  0.18516073  0.15260185    -0.45900
C2147       C  0.85299034  0.19693696  0.15118307    -0.05200
C2148       C  0.86641565  0.19348096  0.16116123    -0.22600
H2149       H  0.88202006  0.17557018  0.18687353     0.19200
H2150       H  0.82619601  0.15796014  0.16712253     0.18000
H2151       H  0.82881245  0.13591718  0.19471405     0.14300
H2152       H  0.87703452  0.20115770  0.16335047     0.14200
H2153       H  0.87620146  0.15227786  0.21035877     0.32300
H2154       H  0.82961501  0.18519604  0.14735976     0.35100
C2155       C  0.77115355  0.10221458  0.24552993     0.20700
C2156       C  0.75699653  0.10220429  0.23572702    -0.39200
C2157       C  0.74196098  0.10306040  0.24415526     0.19700
C2158       C  0.74105205  0.10360515  0.26108735     0.22300
C2159       C  0.75520482  0.10374801  0.27088464    -0.39700
C2160       C  0.77025342  0.10318958  0.26244526     0.21100
N2161       N  0.78685788  0.10323759  0.24042617    -0.33000
C2162       C  0.79599476  0.10529053  0.25414187    -0.10500
C2163       C  0.78607563  0.10522233  0.26811467    -0.29300
N2164       N  0.72541251  0.10558561  0.26607293    -0.45900
C2165       C  0.71634098  0.10658843  0.25221677    -0.05200
C2166       C  0.72621649  0.10500579  0.23830937    -0.22600
H2167       H  0.75766461  0.10231852  0.22248316     0.19200
H2168       H  0.75456354  0.10502508  0.28407085     0.18000
H2169       H  0.78983503  0.10741903  0.28063559     0.14300
H2170       H  0.72248051  0.10598402  0.22563536     0.14200
H2171       H  0.79098219  0.10380734  0.22831107     0.32300
H2172       H  0.72129172  0.10713896  0.27810530     0.35100
C2173       C  0.62824512  0.29037503  0.42131927     0.20700
C2174       C  0.62537847  0.30622105  0.42730044    -0.39200
C2175       C  0.60965986  0.30909777  0.43370059     0.19700
C2176       C  0.59766733  0.29711869  0.43421450     0.22300
C2177       C  0.60056329  0.28117605  0.42828388    -0.39700
C2178       C  0.61634123  0.27827440  0.42179244     0.21100
N2179       N  0.64166145  0.28511872  0.41331366    -0.33000
C2180       C  0.63838794  0.26957360  0.40847704    -0.10500
C2181       C  0.62274580  0.26476426  0.41371840    -0.29300
N2182       N  0.58354056  0.30325286  0.44026586    -0.45900
C2183       C  0.58655194  0.31930063  0.44352956    -0.05200
C2184       C  0.60279224  0.32329114  0.43964849    -0.22600
H2185       H  0.63456266  0.31578278  0.42652810     0.19200
H2186       H  0.59108401  0.27187793  0.42825711     0.18000
H2187       H  0.61647126  0.25341094  0.41095610     0.14300
H2188       H  0.60889105  0.33498948  0.44087998     0.14200
H2189       H  0.65208330  0.29204125  0.41047652     0.32300
H2190       H  0.57246783  0.29695102  0.44171219     0.35100
C2191       C  0.65118860  0.18568054  0.33139897     0.20700
C2192       C  0.64291220  0.17911445  0.31784221    -0.39200
C2193       C  0.64955596  0.16474268  0.31120810     0.19700
C2194       C  0.66339104  0.15735465  0.31761453     0.22300
C2195       C  0.67177057  0.16400850  0.33116732    -0.39700
C2196       C  0.66513706  0.17848830  0.33778827     0.21100
N2197       N  0.64796875  0.19990861  0.33899952    -0.33000
C2198       C  0.65996962  0.20198323  0.35027605    -0.10500
C2199       C  0.67093023  0.18883565  0.34993891    -0.29300
N2200       N  0.66812504  0.14473483  0.30806425    -0.45900
C2201       C  0.65739045  0.14430337  0.29537158    -0.05200
C2202       C  0.64555818  0.15650103  0.29702873    -0.22600
H2203       H  0.63244912  0.18515773  0.31241320     0.19200
H2204       H  0.68299742  0.15868824  0.33577946     0.18000
H2205       H  0.68206838  0.18746662  0.35699966     0.14300
H2206       H  0.63610218  0.15973635  0.28833343     0.14200
H2207       H  0.63862721  0.20814144  0.33610819     0.32300
H2208       H  0.67873971  0.13771422  0.30938124     0.35100
C2209       C  0.66986559  0.28721620  0.30929761     0.20700
C2210       C  0.67881904  0.29592276  0.29751461    -0.39200
C2211       C  0.66992962  0.30761727  0.28875623     0.19700
C2212       C  0.65336975  0.31041306  0.29149828     0.22300
C2213       C  0.64435059  0.30150201  0.30308052    -0.39700
C2214       C  0.65325556  0.28985209  0.31188847     0.21100
N2215       N  0.67588384  0.27690309  0.32052452    -0.33000
C2216       C  0.66302602  0.27308576  0.33034624    -0.10500
C2217       C  0.64866659  0.28070701  0.32524569    -0.29300
N2218       N  0.64825075  0.32347845  0.28302340    -0.45900
C2219       C  0.66167270  0.32898833  0.27490733    -0.05200
C2220       C  0.67535750  0.31931948  0.27796674    -0.22600
H2221       H  0.69192277  0.29435764  0.29593040     0.19200
H2222       H  0.63158218  0.30409861  0.30569974     0.18000
H2223       H  0.63676887  0.28046532  0.33118496     0.14300
H2224       H  0.68782763  0.32130916  0.27378836     0.14200
H2225       H  0.68812196  0.27339772  0.32196220     0.32300
H2226       H  0.63660539  0.32880077  0.28338535     0.35100
C2227       C  0.84054509  0.20532875  0.31408057     0.20700
C2228       C  0.83188043  0.19808462  0.30111577    -0.39200
C2229       C  0.84022210  0.18569677  0.29261102     0.19700
C2230       C  0.85603090  0.18099528  0.29665710     0.22300
C2231       C  0.86471852  0.18830385  0.30953335    -0.39700
C2232       C  0.85633708  0.20057507  0.31810571     0.21100
N2233       N  0.83490623  0.21645252  0.32483696    -0.33000
C2234       C  0.84717092  0.21865521  0.33580635    -0.10500
C2235       C  0.86076027  0.20905731  0.33197604    -0.29300
N2236       N  0.86059833  0.16785596  0.28791632    -0.45900
C2237       C  0.84754168  0.16402913  0.27841727    -0.05200
C2238       C  0.83467996  0.17500502  0.28077815    -0.22600
H2239       H  0.81931880  0.20133553  0.29833684     0.19200
H2240       H  0.87682617  0.18421821  0.31308954     0.18000
H2241       H  0.87210532  0.20800616  0.33876388     0.14300
H2242       H  0.82252353  0.17448064  0.27547651     0.14200
H2243       H  0.82326827  0.22179600  0.32502975     0.32300
H2244       H  0.87151031  0.16127433  0.28910180     0.35100
C2245       C  0.84935349  0.31666807  0.34462046     0.20700
C2246       C  0.84153967  0.33079522  0.33855796    -0.39200
C2247       C  0.84853725  0.33776879  0.32435669     0.19700
C2248       C  0.86221042  0.33108497  0.31680025     0.22300
C2249       C  0.86998257  0.31706936  0.32284468    -0.39700
C2250       C  0.86305063  0.31016549  0.33695872     0.21100
N2251       N  0.84404389  0.30656967  0.35661011    -0.33000
C2252       C  0.85431626  0.29348748  0.35629799    -0.10500
C2253       C  0.86639042  0.29545169  0.34434563    -0.29300
N2254       N  0.86532198  0.33857335  0.30248329    -0.45900
C2255       C  0.85354705  0.35011011  0.30070161    -0.05200
C2256       C  0.84295770  0.35015732  0.31423566    -0.22600
H2257       H  0.83034834  0.33548964  0.34396526     0.19200
H2258       H  0.88015437  0.31138822  0.31646115     0.18000
H2259       H  0.87552441  0.28659420  0.34058987     0.14300
H2260       H  0.83183224  0.35722722  0.31572675     0.14200
H2261       H  0.83330761  0.30779246  0.36353278     0.32300
H2262       H  0.87421741  0.33522433  0.29386782     0.35100
C2263       C  0.76995240  0.25612254  0.39190708     0.20700
C2264       C  0.75574632  0.26575475  0.39094884    -0.39200
C2265       C  0.74080974  0.25718144  0.39097246     0.19700
C2266       C  0.74004909  0.24029659  0.39210693     0.22300
C2267       C  0.75426928  0.23064378  0.39283571    -0.39700
C2268       C  0.76922799  0.23921160  0.39260433     0.21100
N2269       N  0.78559131  0.26126326  0.39066546    -0.33000
C2270       C  0.79488483  0.24754343  0.39022084    -0.10500
C2271       C  0.78513539  0.23353906  0.39151305    -0.29300
N2272       N  0.72444699  0.23504478  0.39082038    -0.45900
C2273       C  0.71527884  0.24865022  0.38851505    -0.05200
C2274       C  0.72502696  0.26269381  0.38858056    -0.22600
H2275       H  0.75630734  0.27891479  0.38960785     0.19200
H2276       H  0.75373566  0.21741286  0.39291521     0.18000
H2277       H  0.78907772  0.22092064  0.39079966     0.14300
H2278       H  0.72118457  0.27515096  0.38631150     0.14200
H2279       H  0.78961691  0.27330612  0.38912438     0.32300
H2280       H  0.72041550  0.22291003  0.39042132     0.35100
C2281       C  0.43748106  0.90446046  0.20088280     0.20700
C2282       C  0.43144125  0.90227824  0.21692812    -0.39200
C2283       C  0.42425856  0.88695252  0.22025232     0.19700
C2284       C  0.42319763  0.87483956  0.20843120     0.22300
C2285       C  0.42914692  0.87704489  0.19244283    -0.39700
C2286       C  0.43631610  0.89229049  0.18916205     0.21100
N2287       N  0.44453609  0.91794022  0.19449002    -0.33000
C2288       C  0.44780093  0.91435780  0.17852691    -0.10500
C2289       C  0.44287525  0.89838540  0.17485192    -0.29300
N2290       N  0.41540660  0.86162649  0.21434238    -0.45900
C2291       C  0.41140144  0.86520251  0.23007396    -0.05200
C2292       C  0.41671119  0.88094043  0.23425486    -0.22600
H2293       H  0.43212150  0.91185460  0.22607737     0.19200
H2294       H  0.42808788  0.86762502  0.18316381     0.18000
H2295       H  0.44384968  0.89196466  0.16329872     0.14300
H2296       H  0.41475849  0.88732467  0.24572043     0.14200
H2297       H  0.44668561  0.92895883  0.20061299     0.32300
H2298       H  0.41250388  0.85097129  0.20786915     0.35100
C2299       C  0.51989630  0.87834719  0.10807198     0.20700
C2300       C  0.52046656  0.89048102  0.12020369    -0.39200
C2301       C  0.50521253  0.89609071  0.12584571     0.19700
C2302       C  0.49047366  0.89001023  0.12000305     0.22300
C2303       C  0.48989538  0.87785681  0.10785271    -0.39700
C2304       C  0.50517563  0.87235705  0.10208523     0.21100
N2305       N  0.53268467  0.87175494  0.10000093    -0.33000
C2306       C  0.52608109  0.86160272  0.08864994    -0.10500
C2307       C  0.50893076  0.86162151  0.08964009    -0.29300
N2308       N  0.47774545  0.89832153  0.12641533    -0.45900
C2309       C  0.48446409  0.90998373  0.13616434    -0.05200
C2310       C  0.50157082  0.90877117  0.13628302    -0.22600
H2311       H  0.53193975  0.89561618  0.12449487     0.19200
H2312       H  0.47841777  0.87345494  0.10282746     0.18000
H2313       H  0.50031438  0.85496989  0.08205489     0.14300
H2314       H  0.51028278  0.91658157  0.14253747     0.14200
H2315       H  0.54508495  0.87455474  0.10166854     0.32300
H2316       H  0.46536426  0.89678186  0.12349812     0.35100
C2317       C  0.49991022  0.83713511  0.99019005     0.20700
C2318       C  0.51515176  0.84328704  0.99534144    -0.39200
C2319       C  0.52106338  0.83714551  0.01023262     0.19700
C2320       C  0.51244602  0.82577049  0.01936804     0.22300
C2321       C  0.49718711  0.81959558  0.01420606    -0.39700
C2322       C  0.49127763  0.82572143  0.99927580     0.21100
N2323       N  0.49077545  0.84267497  0.97769623    -0.33000
C2324       C  0.47605213  0.83489778  0.97885150    -0.10500
C2325       C  0.47605901  0.82405225  0.99208558    -0.29300
N2326       N  0.51950024  0.82372361  0.03410502    -0.45900
C2327       C  0.53262427  0.83398983  0.03452960    -0.05200
C2328       C  0.53404979  0.84239630  0.01964643    -0.22600
H2329       H  0.52146094  0.85291717  0.98874811     0.19200
H2330       H  0.48996870  0.81141244  0.02176143     0.18000
H2331       H  0.46574423  0.81706925  0.99671615     0.14300
H2332       H  0.54220427  0.85239880  0.01663022     0.14200
H2333       H  0.49404674  0.85223998  0.96990133     0.32300
H2334       H  0.51479727  0.81691607  0.04387217     0.35100
C2335       C  0.29954374  0.87518408  0.08133517     0.20700
C2336       C  0.31551904  0.87768242  0.07533845    -0.39200
C2337       C  0.31864961  0.89308318  0.06845638     0.19700
C2338       C  0.30680074  0.90512265  0.06755750     0.22300
C2339       C  0.29078615  0.90265700  0.07367053    -0.39700
C2340       C  0.28762507  0.88719717  0.08060649     0.21100
N2341       N  0.29380502  0.86185428  0.08907424    -0.33000
C2342       C  0.27811845  0.86530350  0.09346951    -0.10500
C2343       C  0.27377234  0.88102300  0.08835282    -0.29300
N2344       N  0.31304159  0.91876414  0.06065615    -0.45900
C2345       C  0.32903981  0.91541516  0.05722581    -0.05200
C2346       C  0.33289209  0.89944306  0.06191878    -0.22600
H2347       H  0.32491125  0.86837683  0.07618775     0.19200
H2348       H  0.28154836  0.91214192  0.07326416     0.18000
H2349       H  0.26233141  0.88734088  0.09065551     0.14300
H2350       H  0.34450231  0.89315709  0.06073986     0.14200
H2351       H  0.30041464  0.85127741  0.09182956     0.32300
H2352       H  0.30681455  0.92973097  0.05868486     0.35100
C2353       C  0.39845493  0.93050759  0.08661028     0.20700
C2354       C  0.41053229  0.92117535  0.09459389    -0.39200
C2355       C  0.41905669  0.92912653  0.10730580     0.19700
C2356       C  0.41581494  0.94516349  0.11163378     0.22300
C2357       C  0.40377650  0.95449334  0.10364786    -0.39700
C2358       C  0.39527210  0.94654904  0.09096093     0.21100
N2359       N  0.38885309  0.92586400  0.07401571    -0.33000
C2360       C  0.37953041  0.93906588  0.07018519    -0.10500
C2361       C  0.38322653  0.95221233  0.08055393    -0.29300
N2362       N  0.42580420  0.95006682  0.12378256    -0.45900
C2363       C  0.43555258  0.93709062  0.12733963    -0.05200
C2364       C  0.43162947  0.92374953  0.11731635    -0.22600
H2365       H  0.41316984  0.90867609  0.09109116     0.19200
H2366       H  0.40133885  0.96708708  0.10695575     0.18000
H2367       H  0.37788676  0.96432073  0.08048476     0.14300
H2368       H  0.43746650  0.91187718  0.11704051     0.14200
H2369       H  0.38898529  0.91450622  0.06815061     0.32300
H2370       H  0.42592678  0.96161319  0.12927478     0.35100
C2371       C  0.38812582  0.89077850  0.01662495     0.20700
C2372       C  0.40029557  0.87873883  0.01788101    -0.39200
C2373       C  0.40648659  0.87275927  0.00298624     0.19700
C2374       C  0.40080469  0.87812135  0.98797122     0.22300
C2375       C  0.38854966  0.89007867  0.98671271    -0.39700
C2376       C  0.38256366  0.89627030  0.00161111     0.21100
N2377       N  0.38159358  0.89963331  0.02889760    -0.33000
C2378       C  0.37203418  0.91106762  0.02165031    -0.10500
C2379       C  0.37217553  0.90918064  0.00462992    -0.29300
N2380       N  0.40958368  0.87149585  0.97567881    -0.45900
C2381       C  0.42110376  0.86202120  0.98292292    -0.05200
C2382       C  0.41943597  0.86240999  0.99995816    -0.22600
H2383       H  0.40517739  0.87491645  0.02957919     0.19200
H2384       H  0.38457286  0.89481069  0.97500642     0.18000
H2385       H  0.36611938  0.91669346  0.99558892     0.14300
H2386       H  0.42701885  0.85641055  0.00898612     0.14200
H2387       H  0.38432986  0.89856297  0.04133376     0.32300
H2388       H  0.40833690  0.87400360  0.96320824     0.35100
C2389       C  0.61580464  0.90608670  0.06985260     0.20700
C2390       C  0.60473120  0.89723631  0.07978827    -0.39200
C2391       C  0.59521528  0.88528324  0.07172274     0.19700
C2392       C  0.59677431  0.88238741  0.05510361     0.22300
C2393       C  0.60783144  0.89115575  0.04523355    -0.39700
C2394       C  0.61719814  0.90313390  0.05323374     0.21100
N2395       N  0.62565776  0.91858493  0.07431248    -0.33000
C2396       C  0.63331414  0.92372996  0.06039742    -0.10500
C2397       C  0.62831973  0.91425569  0.04702175    -0.29300
N2398       N  0.58589922  0.87109479  0.05011490    -0.45900
C2399       C  0.57706674  0.86671422  0.06355594    -0.05200
C2400       C  0.58268104  0.87523967  0.07736439    -0.22600
H2401       H  0.60334210  0.89974871  0.09273999     0.19200
H2402       H  0.60874961  0.88909506  0.03216061     0.18000
H2403       H  0.63207931  0.91543051  0.03435904     0.14300
H2404       H  0.57785234  0.87472176  0.08971100     0.14200
H2405       H  0.62664555  0.92355296  0.08605591     0.32300
H2406       H  0.58451557  0.86694478  0.03810085     0.35100
C2407       C  0.59785333  0.06198891  0.19940721     0.20700
C2408       C  0.59995703  0.06866321  0.21519976    -0.39200
C2409       C  0.61592286  0.07409192  0.21902270     0.19700
C2410       C  0.62872684  0.07292277  0.20790485     0.22300
C2411       C  0.62660485  0.06633270  0.19215188    -0.39700
C2412       C  0.61070148  0.06095296  0.18835554     0.21100
N2413       N  0.58390311  0.05623741  0.19265736    -0.33000
C2414       C  0.58788355  0.05155820  0.17715177    -0.10500
C2415       C  0.60453540  0.05435875  0.17408091    -0.29300
N2416       N  0.64236940  0.07993113  0.21392334    -0.45900
C2417       C  0.63834064  0.08580486  0.22895333    -0.05200
C2418       C  0.62194095  0.08225096  0.23266632    -0.22600
H2419       H  0.58984674  0.06983956  0.22375032     0.19200
H2420       H  0.63655649  0.06575945  0.18335367     0.18000
H2421       H  0.61135021  0.05182493  0.16297437     0.14300
H2422       H  0.61506377  0.08611947  0.24334984     0.14200
H2423       H  0.57235898  0.05576710  0.19823553     0.32300
H2424       H  0.65351922  0.08148452  0.20775335     0.35100
C2425       C  0.52035552  0.00219728  0.16885883     0.20700
C2426       C  0.51500261  0.98739411  0.17587606    -0.39200
C2427       C  0.50007338  0.98111563  0.16990429     0.19700
C2428       C  0.49122285  0.98900512  0.15786164     0.22300
C2429       C  0.49659067  0.00374034  0.15084541    -0.39700
C2430       C  0.51144159  0.01002454  0.15682728     0.21100
N2431       N  0.53505979  0.00947238  0.17079478    -0.33000
C2432       C  0.53566380  0.02193494  0.15982008    -0.10500
C2433       C  0.52095688  0.02271804  0.15102342    -0.29300
N2434       N  0.47867581  0.97965361  0.15271654    -0.45900
C2435       C  0.47949067  0.96549182  0.16136855    -0.05200
C2436       C  0.49263260  0.96610537  0.17238795    -0.22600
H2437       H  0.52239162  0.98077187  0.18463023     0.19200
H2438       H  0.49014426  0.00940474  0.14076956     0.18000
H2439       H  0.51813447  0.03029548  0.14057303     0.14300
H2440       H  0.49708743  0.95624068  0.17998737     0.14200
H2441       H  0.54468760  0.00534592  0.17812328     0.32300
H2442       H  0.47111854  0.98237283  0.14280867     0.35100
C2443       C  0.60983290  0.00915509  0.11665861     0.20700
C2444       C  0.62156160  0.00969023  0.10411125    -0.39200
C2445       C  0.62780572  0.99453611  0.09910218     0.19700
C2446       C  0.62284879  0.97989756  0.10602730     0.22300
C2447       C  0.61105071  0.97934815  0.11859994    -0.39700
C2448       C  0.60471753  0.99455191  0.12357663     0.21100
N2449       N  0.60142866  0.02182988  0.12292481    -0.33000
C2450       C  0.59072208  0.01527957  0.13380748    -0.10500
C2451       C  0.59245183  0.99828557  0.13460064    -0.29300
N2452       N  0.62993709  0.96716325  0.09828957    -0.45900
C2453       C  0.63929860  0.97380257  0.08622480    -0.05200
C2454       C  0.63837897  0.99086236  0.08654452    -0.22600
H2455       H  0.62521200  0.02104285  0.09833553     0.19200
H2456       H  0.60676247  0.96792571  0.12377224     0.18000
H2457       H  0.58540286  0.98976053  0.14192805     0.14300
H2458       H  0.64419237  0.99951721  0.07835899     0.14200
H2459       H  0.60241107  0.03407622  0.11943090     0.32300
H2460       H  0.62785344  0.95476794  0.10057520     0.35100
C2461       C  0.66517072  0.98005285  0.00814881     0.20700
C2462       C  0.65940943  0.98496968  0.99275294    -0.39200
C2463       C  0.66500587  0.00022259  0.98718091     0.19700
C2464       C  0.67557139  0.00991769  0.99621198     0.22300
C2465       C  0.68149492  0.00493836  0.01157507    -0.39700
C2466       C  0.67587229  0.98964661  0.01716020     0.21100
N2467       N  0.65975692  0.96727981  0.01704807    -0.33000
C2468       C  0.66692257  0.96876913  0.03197921    -0.10500
C2469       C  0.67728800  0.98245101  0.03233822    -0.29300
N2470       N  0.67707930  0.02479924  0.98931886    -0.45900
C2471       C  0.66717373  0.02473318  0.97594552    -0.05200
C2472       C  0.65974394  0.00938006  0.97409609    -0.22600
H2473       H  0.65034449  0.97793128  0.98608362     0.19200
H2474       H  0.68903783  0.01284904  0.01910115     0.18000
H2475       H  0.68365027  0.98737691  0.04288308     0.14300
H2476       H  0.65046404  0.00567560  0.96541613     0.14200
H2477       H  0.65064743  0.95902682  0.01349928     0.32300
H2478       H  0.68337050  0.03484886  0.99415815     0.35100
C2479       C  0.60041221  0.19579723  0.06803447     0.20700
C2480       C  0.60254407  0.21201516  0.07364726    -0.39200
C2481       C  0.61792154  0.21567524  0.08070526     0.19700
C2482       C  0.63011181  0.20399441  0.08204437     0.22300
C2483       C  0.62798468  0.18788762  0.07643504    -0.39700
C2484       C  0.61270394  0.18426808  0.06942955     0.21100
N2485       N  0.58694623  0.18906932  0.06114030    -0.33000
C2486       C  0.59070277  0.17310811  0.05813702    -0.10500
C2487       C  0.60671457  0.16975620  0.06320593    -0.29300
N2488       N  0.64306491  0.20997089  0.09027054    -0.45900
C2489       C  0.63925756  0.22559113  0.09437408    -0.05200
C2490       C  0.62369511  0.22970801  0.08843792    -0.22600
H2491       H  0.59284845  0.22101024  0.07287914     0.19200
H2492       H  0.63744530  0.17871205  0.07777055     0.18000
H2493       H  0.61328689  0.15830594  0.06238256     0.14300
H2494       H  0.61705435  0.24097788  0.09051621     0.14200
H2495       H  0.57586910  0.19500696  0.05878231     0.32300
H2496       H  0.65356868  0.20350225  0.09365114     0.35100
C2497       C  0.57548546  0.10355464  0.08750417     0.20700
C2498       C  0.58462350  0.09208492  0.09654177    -0.39200
C2499       C  0.57565645  0.08271781  0.10796895     0.19700
C2500       C  0.55893303  0.08467936  0.11014662     0.22300
C2501       C  0.54985434  0.09608980  0.10116291    -0.39700
C2502       C  0.55876612  0.10537766  0.08979279     0.21100
N2503       N  0.58091128  0.11369874  0.07564194    -0.33000
C2504       C  0.56748713  0.12197216  0.07030835    -0.10500
C2505       C  0.55348656  0.11706057  0.07895342    -0.29300
N2506       N  0.55310473  0.07408701  0.12128715    -0.45900
C2507       C  0.56613784  0.06511575  0.12634121    -0.05200
C2508       C  0.58048833  0.07025738  0.11833895    -0.22600
H2509       H  0.59767960  0.09044378  0.09468612     0.19200
H2510       H  0.53673068  0.09747373  0.10274949     0.18000
H2511       H  0.54101263  0.12132329  0.07751051     0.14300
H2512       H  0.59272940  0.06531215  0.11954303     0.14200
H2513       H  0.59291818  0.11458595  0.07122363     0.32300
H2514       H  0.54089242  0.07307087  0.12506395     0.35100
C2515       C  0.61031897  0.11956353  0.00211245     0.20700
C2516       C  0.61541859  0.11459250  0.98642374    -0.39200
C2517       C  0.62714602  0.10206531  0.98594378     0.19700
C2518       C  0.63338776  0.09513520  0.00005247     0.22300
C2519       C  0.62846473  0.10028248  0.01576174    -0.39700
C2520       C  0.61662432  0.11272769  0.01624025     0.21100
N2521       N  0.59810439  0.12995478  0.00572900    -0.33000
C2522       C  0.59644435  0.12970774  0.02228214    -0.10500
C2523       C  0.60797836  0.11925302  0.02930372    -0.29300
N2524       N  0.64301828  0.08233200  0.99634615    -0.45900
C2525       C  0.64280709  0.08092835  0.97975795    -0.05200
C2526       C  0.63323720  0.09323841  0.97282806    -0.22600
H2527       H  0.61001309  0.11953026  0.97539714     0.19200
H2528       H  0.63289859  0.09443760  0.02677572     0.18000
H2529       H  0.60914092  0.11599090  0.04208640     0.14300
H2530       H  0.63018180  0.09483041  0.96004037     0.14200
H2531       H  0.59098930  0.13637664  0.99729884     0.32300
H2532       H  0.64885926  0.07468671  0.00472657     0.35100
C2533       C  0.44334582  0.18450180  0.89675908     0.20700
C2534       C  0.43566893  0.18696038  0.88163978    -0.39200
C2535       C  0.43060267  0.20298525  0.87837523     0.19700
C2536       C  0.43305968  0.21578354  0.88922562     0.22300
C2537       C  0.44093683  0.21333667  0.90439023    -0.39700
C2538       C  0.44590793  0.19715362  0.90773152     0.21100
N2539       N  0.44829534  0.17015462  0.90302331    -0.33000
C2540       C  0.45405307  0.17346710  0.91824580    -0.10500
C2541       C  0.45285416  0.19029396  0.92154952    -0.29300
N2542       N  0.42583897  0.22956089  0.88363055    -0.45900
C2543       C  0.41867733  0.22531985  0.86920555    -0.05200
C2544       C  0.42152604  0.20890519  0.86555761    -0.22600
H2545       H  0.43325452  0.17696942  0.87325661     0.19200
H2546       H  0.44255004  0.22314889  0.91316510     0.18000
H2547       H  0.45622605  0.19667766  0.93266423     0.14300
H2548       H  0.41677839  0.20197340  0.85529017     0.14200
H2549       H  0.44752682  0.15880750  0.89720156     0.32300
H2550       H  0.42509448  0.24083880  0.88962053     0.35100
C2551       C  0.50483429  0.16248494  0.98358330     0.20700
C2552       C  0.52016027  0.16865510  0.98853719    -0.39200
C2553       C  0.52585836  0.16320621  0.00379992     0.19700
C2554       C  0.51698795  0.15238897  0.01336521     0.22300
C2555       C  0.50164006  0.14625552  0.00843045    -0.39700
C2556       C  0.49592513  0.15173509  0.99319169     0.21100
N2557       N  0.49780779  0.16413170  0.96880067    -0.33000
C2558       C  0.48445798  0.15415464  0.96877303    -0.10500
C2559       C  0.48273551  0.14646864  0.98400793    -0.29300
N2560       N  0.52590126  0.14749423  0.02629165    -0.45900
C2561       C  0.54072511  0.15510354  0.02494188    -0.05200
C2562       C  0.54096241  0.16522630  0.01115059    -0.22600
H2563       H  0.52752644  0.17640502  0.98067102     0.19200
H2564       H  0.49506713  0.13715786  0.01550811     0.18000
H2565       H  0.47405575  0.13709615  0.98754344     0.14300
H2566       H  0.55136811  0.17194781  0.00633872     0.14200
H2567       H  0.50254860  0.17061241  0.95882932     0.32300
H2568       H  0.52231721  0.13852244  0.03462974     0.35100
C2569       C  0.59661900  0.04515993  0.89065695     0.20700
C2570       C  0.60750289  0.03563770  0.89993049    -0.39200
C2571       C  0.61737278  0.04420263  0.91113236     0.19700
C2572       C  0.61656395  0.06099093  0.91295975     0.22300
C2573       C  0.60567518  0.07055003  0.90360560    -0.39700
C2574       C  0.59572563  0.06195629  0.89238079     0.21100
N2575       N  0.58569907  0.03980240  0.87954352    -0.33000
C2576       C  0.57763315  0.05322740  0.87398673    -0.10500
C2577       C  0.58363804  0.06732597  0.88174754    -0.29300
N2578       N  0.62685599  0.06607337  0.92487355    -0.45900
C2579       C  0.63421697  0.05239820  0.93079835    -0.05200
C2580       C  0.62860631  0.03853992  0.92235680    -0.22600
H2581       H  0.60805043  0.02246228  0.89870370     0.19200
H2582       H  0.60484754  0.08367756  0.90511707     0.18000
H2583       H  0.57954293  0.07979430  0.88012981     0.14300
H2584       H  0.63201568  0.02590807  0.92426021     0.14200
H2585       H  0.58396437  0.02763832  0.87603650     0.32300
H2586       H  0.62835340  0.07807842  0.92899482     0.35100
C2587       C  0.49429078  0.11305141  0.89302587     0.20700
C2588       C  0.49333648  0.10059848  0.88121841    -0.39200
C2589       C  0.50841899  0.09473561  0.87532219     0.19700
C2590       C  0.52332899  0.10086495  0.88065499     0.22300
C2591       C  0.52428446  0.11332271  0.89246142    -0.39700
C2592       C  0.50920333  0.11909396  0.89846064     0.21100
N2593       N  0.48180075  0.11962736  0.90158042    -0.33000
C2594       C  0.48881509  0.12972395  0.91275133    -0.10500
C2595       C  0.50589670  0.12984414  0.91102020    -0.29300
N2596       N  0.53586088  0.09234227  0.87413934    -0.45900
C2597       C  0.52888974  0.08052166  0.86477216    -0.05200
C2598       C  0.51176914  0.08179304  0.86507393    -0.22600
H2599       H  0.48172807  0.09537802  0.87741587     0.19200
H2600       H  0.53591359  0.11770563  0.89714500     0.18000
H2601       H  0.51478914  0.13631616  0.91844111     0.14300
H2602       H  0.50287603  0.07389725  0.85919129     0.14200
H2603       H  0.46938403  0.11661448  0.90054028     0.32300
H2604       H  0.54831523  0.09390014  0.87672815     0.35100
C2605       C  0.31972610  0.06568381  0.89656829     0.20700
C2606       C  0.31793098  0.07350164  0.88139781    -0.39200
C2607       C  0.30224404  0.07962935  0.87795992     0.19700
C2608       C  0.28920058  0.07810075  0.88874820     0.22300
C2609       C  0.29100658  0.07022504  0.90399972    -0.39700
C2610       C  0.30680596  0.06409728  0.90746862     0.21100
N2611       N  0.33360761  0.05945141  0.90285778    -0.33000
C2612       C  0.32971885  0.05383980  0.91802951    -0.10500
C2613       C  0.31298853  0.05646488  0.92126393    -0.29300
N2614       N  0.27580432  0.08581402  0.88284056    -0.45900
C2615       C  0.28047552  0.09234282  0.86824595    -0.05200
C2616       C  0.29684731  0.08865643  0.86483439    -0.22600
H2617       H  0.32813564  0.07504400  0.87301459     0.19200
H2618       H  0.28097180  0.06925439  0.91266508     0.18000
H2619       H  0.30625701  0.05352920  0.93231690     0.14300
H2620       H  0.30406888  0.09269644  0.85444498     0.14200
H2621       H  0.34503635  0.05928290  0.89706376     0.32300
H2622       H  0.26445838  0.08716848  0.88867887     0.35100
C2623       C  0.33852681  0.00276706  0.98418674     0.20700
C2624       C  0.33213814  0.98752871  0.98909571    -0.39200
C2625       C  0.33766666  0.98160250  0.00426687     0.19700
C2626       C  0.34869944  0.99023154  0.01380690     0.22300
C2627       C  0.35510580  0.00543567  0.00887534    -0.39700
C2628       C  0.34961424  0.01134144  0.99370839     0.21100
N2629       N  0.33687786  0.00992022  0.96946021    -0.33000
C2630       C  0.34723168  0.02297774  0.96933285    -0.10500
C2631       C  0.35516940  0.02438784  0.98448395    -0.29300
N2632       N  0.35366592  0.98116364  0.02658893    -0.45900
C2633       C  0.34597277  0.96644061  0.02516824    -0.05200
C2634       C  0.33565906  0.96643550  0.01146707    -0.22600
H2635       H  0.32420244  0.98036933  0.98123111     0.19200
H2636       H  0.36444797  0.01174027  0.01588685     0.18000
H2637       H  0.36491913  0.03270709  0.98787824     0.14300
H2638       H  0.32886752  0.95614297  0.00656859     0.14200
H2639       H  0.33022761  0.00535117  0.95952170     0.32300
H2640       H  0.36284655  0.98452756  0.03481214     0.35100
C2641       C  0.39829350  0.08512490  0.94671660     0.20700
C2642       C  0.40647921  0.09724710  0.95576354    -0.39200
C2643       C  0.41915663  0.10553151  0.94757848     0.19700
C2644       C  0.42344295  0.10210941  0.93153946     0.22300
C2645       C  0.41526599  0.08983500  0.92245017    -0.39700
C2646       C  0.40245635  0.08151030  0.93067825     0.21100
N2647       N  0.38599062  0.07546457  0.95195318    -0.33000
C2648       C  0.38209252  0.06546648  0.93924303    -0.10500
C2649       C  0.39209275  0.06894434  0.92567037    -0.29300
N2650       N  0.43601541  0.11181342  0.92670048    -0.45900
C2651       C  0.43979739  0.12137731  0.93983745    -0.05200
C2652       C  0.42947440  0.11772240  0.95303955    -0.22600
H2653       H  0.40325228  0.09998356  0.96834475     0.19200
H2654       H  0.41862427  0.08697226  0.90993382     0.18000
H2655       H  0.39208947  0.06284819  0.91389277     0.14300
H2656       H  0.42947980  0.12323124  0.96510318     0.14200
H2657       H  0.38058866  0.07573487  0.96356629     0.32300
H2658       H  0.44186571  0.11166875  0.91530494     0.35100
C2659       C  0.45527889  0.90569352  0.89353585     0.20700
C2660       C  0.46497752  0.89504826  0.90288248    -0.39200
C2661       C  0.45657151  0.88553128  0.91448078     0.19700
C2662       C  0.43976992  0.88649574  0.91664237     0.22300
C2663       C  0.43003646  0.89723358  0.90730066    -0.39700
C2664       C  0.43847105  0.90679479  0.89562732     0.21100
N2665       N  0.46050182  0.91625829  0.88206407    -0.33000
C2666       C  0.44701282  0.92439970  0.87671925    -0.10500
C2667       C  0.43295962  0.91868835  0.88486435    -0.29300
N2668       N  0.43481100  0.87621181  0.92857580    -0.45900
C2669       C  0.44857173  0.86863265  0.93410508    -0.05200
C2670       C  0.46238327  0.87422427  0.92552626    -0.22600
H2671       H  0.47815916  0.89433056  0.90132275     0.19200
H2672       H  0.41689581  0.89814833  0.90906313     0.18000
H2673       H  0.42048195  0.92297855  0.88351997     0.14300
H2674       H  0.47504623  0.87060722  0.92709533     0.14200
H2675       H  0.47265672  0.91781854  0.87828677     0.32300
H2676       H  0.42280084  0.87472945  0.93281370     0.35100
C2677       C  0.49117761  0.98885527  0.83466728     0.20700
C2678       C  0.49653514  0.00355627  0.82744427    -0.39200
C2679       C  0.51192652  0.00941531  0.83263764     0.19700
C2680       C  0.52122514  0.00122707  0.84413337     0.22300
C2681       C  0.51586297  0.98655739  0.85132418    -0.39700
C2682       C  0.50052042  0.98071188  0.84614641     0.21100
N2683       N  0.47631262  0.98178104  0.83324147    -0.33000
C2684       C  0.47604535  0.96910072  0.84397889    -0.10500
C2685       C  0.49110815  0.96800479  0.85213040    -0.29300
N2686       N  0.53422171  0.01028788  0.84871431    -0.45900
C2687       C  0.53317235  0.02460440  0.84033450    -0.05200
C2688       C  0.51954401  0.02428767  0.82990075    -0.22600
H2689       H  0.48887561  0.01040256  0.81910427     0.19200
H2690       H  0.52272882  0.98061360  0.86095057     0.18000
H2691       H  0.49442729  0.95997972  0.86208189     0.14300
H2692       H  0.51486557  0.03432484  0.82266984     0.14200
H2693       H  0.46650982  0.98596986  0.82618398     0.32300
H2694       H  0.54225933  0.00728969  0.85814995     0.35100
C2695       C  0.39904177  0.97943736  0.88297728     0.20700
C2696       C  0.38710773  0.97925244  0.89540734    -0.39200
C2697       C  0.38100816  0.99460533  0.90015123     0.19700
C2698       C  0.38618706  0.00903232  0.89293165     0.22300
C2699       C  0.39799503  0.00919974  0.88041412    -0.39700
C2700       C  0.40428540  0.99389499  0.87585545     0.21100
N2701       N  0.40810338  0.96674646  0.87761824    -0.33000
C2702       C  0.41938447  0.97324385  0.86725242    -0.10500
C2703       C  0.41722529  0.99011399  0.86571556    -0.29300
N2704       N  0.37997470  0.02206359  0.90086529    -0.45900
C2705       C  0.37101413  0.01592811  0.91344984    -0.05200
C2706       C  0.37114815  0.99880954  0.91317800    -0.22600
H2707       H  0.38355474  0.96808963  0.90159769     0.19200
H2708       H  0.40267019  0.02049612  0.87529334     0.18000
H2709       H  0.42464165  0.99863242  0.85874962     0.14300
H2710       H  0.36562805  0.99047791  0.92188500     0.14200
H2711       H  0.40735514  0.95463285  0.88159963     0.32300
H2712       H  0.38269591  0.03432645  0.89852963     0.35100
C2713       C  0.38361534  0.57597089  0.71061760     0.20700
C2714       C  0.38617814  0.56991281  0.69472662    -0.39200
C2715       C  0.40175378  0.56339077  0.69152184     0.19700
C2716       C  0.41391695  0.56280151  0.70326836     0.22300
C2717       C  0.41135152  0.56890714  0.71928972    -0.39700
C2718       C  0.39567664  0.57556403  0.72251015     0.21100
N2719       N  0.37024189  0.58382184  0.71611705    -0.33000
C2720       C  0.37360050  0.58868250  0.73162961    -0.10500
C2721       C  0.38937327  0.58362387  0.73618282    -0.29300
N2722       N  0.42779089  0.55639834  0.69684149    -0.45900
C2723       C  0.42444495  0.55300472  0.68084435    -0.05200
C2724       C  0.40825215  0.55720886  0.67718612    -0.22600
H2725       H  0.37681762  0.57063258  0.68537137     0.19200
H2726       H  0.42095675  0.56884564  0.72842222     0.18000
H2727       H  0.39571879  0.58635210  0.74749646     0.14300
H2728       H  0.40195785  0.55598839  0.66559979     0.14200
H2729       H  0.35969053  0.58644816  0.70937344     0.32300
H2730       H  0.43893423  0.55479214  0.70291545     0.35100
C2731       C  0.24021744  0.60138042  0.75320444     0.20700
C2732       C  0.25487861  0.59561067  0.74600880    -0.39200
C2733       C  0.26957654  0.60072069  0.75359932     0.19700
C2734       C  0.26955723  0.61086014  0.76721021     0.22300
C2735       C  0.25501419  0.61648975  0.77440559    -0.39700
C2736       C  0.24045524  0.61133698  0.76693703     0.21100
N2737       N  0.22470022  0.59965937  0.74760356    -0.33000
C2738       C  0.21518046  0.60869841  0.75788412    -0.10500
C2739       C  0.22459411  0.61594470  0.77013260    -0.29300
N2740       N  0.28487828  0.61542921  0.77115232    -0.45900
C2741       C  0.29489346  0.60824936  0.76001657    -0.05200
C2742       C  0.28584197  0.59876275  0.74895531    -0.22600
H2743       H  0.25487395  0.58827420  0.73495726     0.19200
H2744       H  0.25504639  0.62487657  0.78468663     0.18000
H2745       H  0.22048773  0.62436842  0.77953311     0.14300
H2746       H  0.29041130  0.59238892  0.73824683     0.14200
H2747       H  0.22096446  0.59350652  0.73702093     0.32300
H2748       H  0.28824337  0.62371837  0.78031348     0.35100
C2749       C  0.16993671  0.70814226  0.81175765     0.20700
C2750       C  0.17921190  0.70005161  0.79975351    -0.39200
C2751       C  0.17088834  0.68790998  0.79093722     0.19700
C2752       C  0.15452426  0.68420207  0.79380492     0.22300
C2753       C  0.14518740  0.69244059  0.80566959    -0.39700
C2754       C  0.15355675  0.70448560  0.81459453     0.21100
N2755       N  0.17554253  0.71872850  0.82300121    -0.33000
C2756       C  0.16272668  0.72168391  0.83316300    -0.10500
C2757       C  0.14871606  0.71320116  0.82823404    -0.29300
N2758       N  0.15000049  0.67094491  0.78521666    -0.45900
C2759       C  0.16358920  0.66614188  0.77694531    -0.05200
C2760       C  0.17682350  0.67652160  0.77999215    -0.22600
H2761       H  0.19219191  0.70239258  0.79805715     0.19200
H2762       H  0.13261966  0.68905607  0.80840126     0.18000
H2763       H  0.13694208  0.71266342  0.83439735     0.14300
H2764       H  0.18935324  0.67518840  0.77574195     0.14200
H2765       H  0.18759290  0.72294438  0.82425134     0.32300
H2766       H  0.13865257  0.66497945  0.78567990     0.35100
C2767       C  0.39457083  0.77877451  0.92339057     0.20700
C2768       C  0.41087667  0.78127120  0.92845075    -0.39200
C2769       C  0.41411130  0.79624734  0.93632355     0.19700
C2770       C  0.40206479  0.80789717  0.93884374     0.22300
C2771       C  0.38578663  0.80542366  0.93378962    -0.39700
C2772       C  0.38254230  0.79043904  0.92599815     0.21100
N2773       N  0.38853327  0.76602616  0.91478744    -0.33000
C2774       C  0.37257719  0.76967971  0.91181913    -0.10500
C2775       C  0.36841138  0.78476577  0.91869489    -0.29300
N2776       N  0.40838266  0.82133848  0.94598884    -0.45900
C2777       C  0.42460967  0.81827743  0.94807731    -0.05200
C2778       C  0.42860022  0.80267345  0.94228299    -0.22600
H2779       H  0.42041096  0.77234769  0.92615544     0.19200
H2780       H  0.37641000  0.81464486  0.93546820     0.18000
H2781       H  0.35683800  0.79116014  0.91765150     0.14300
H2782       H  0.44057028  0.79696108  0.94203631     0.14200
H2783       H  0.39507916  0.75593898  0.91041629     0.32300
H2784       H  0.40197940  0.83191906  0.94923064     0.35100
C2785       C  0.35212943  0.68147107  0.83950294     0.20700
C2786       C  0.34620926  0.66599213  0.83473464    -0.39200
C2787       C  0.35226403  0.65992758  0.81974862     0.19700
C2788       C  0.36313771  0.66877212  0.81015155     0.22300
C2789       C  0.36897799  0.68422246  0.81486112    -0.39700
C2790       C  0.36316196  0.69012889  0.82991863     0.21100
N2791       N  0.34752997  0.69041920  0.85262356    -0.33000
C2792       C  0.35571923  0.70484217  0.85130361    -0.10500
C2793       C  0.36564079  0.70503051  0.83736399    -0.29300
N2794       N  0.36588682  0.66111131  0.79584153    -0.45900
C2795       C  0.35675435  0.64723528  0.79624876    -0.05200
C2796       C  0.34817249  0.64598661  0.81103174    -0.22600
H2797       H  0.33722062  0.65936438  0.84192677     0.19200
H2798       H  0.37710373  0.69134066  0.80713505     0.18000
H2799       H  0.37290281  0.71513487  0.83275002     0.14300
H2800       H  0.33915367  0.63683091  0.81437019     0.14200
H2801       H  0.33874138  0.68726959  0.86141904     0.32300
H2802       H  0.37278216  0.66554601  0.78598685     0.35100
C2803       C  0.27025709  0.75335254  0.89423866     0.20700
C2804       C  0.25595720  0.76282484  0.89550449    -0.39200
C2805       C  0.24110376  0.75411628  0.89549567     0.19700
C2806       C  0.24053158  0.73724287  0.89404384     0.22300
C2807       C  0.25486570  0.72772898  0.89313763    -0.39700
C2808       C  0.26974755  0.73644203  0.89337151     0.21100
N2809       N  0.28571359  0.75882153  0.89236338    -0.33000
C2810       C  0.29516571  0.74532337  0.89045422    -0.10500
C2811       C  0.28568548  0.73110499  0.89117457    -0.29300
N2812       N  0.22497681  0.73214015  0.89186739    -0.45900
C2813       C  0.21561596  0.74584294  0.89207682    -0.05200
C2814       C  0.22518910  0.75975064  0.89461385    -0.22600
H2815       H  0.25633855  0.77606074  0.89566940     0.19200
H2816       H  0.25444784  0.71458749  0.89153558     0.18000
H2817       H  0.28975527  0.71865358  0.88923691     0.14300
H2818       H  0.22122327  0.77237137  0.89419447     0.14200
H2819       H  0.28952441  0.77101804  0.89176946     0.32300
H2820       H  0.22107590  0.72020702  0.88939555     0.35100
C2821       C  0.16574019  0.83675129  0.82111464     0.20700
C2822       C  0.17420816  0.82986115  0.83446323    -0.39200
C2823       C  0.16643905  0.81655570  0.84227734     0.19700
C2824       C  0.15139710  0.81059152  0.83712370     0.22300
C2825       C  0.14297727  0.81745068  0.82380035    -0.39700
C2826       C  0.15071015  0.83071555  0.81602423     0.21100
N2827       N  0.17121114  0.84831480  0.81065587    -0.33000
C2828       C  0.15967761  0.84952446  0.79872722    -0.10500
C2829       C  0.14664902  0.83881835  0.80177468    -0.29300
N2830       N  0.14740856  0.79685553  0.84529884    -0.45900
C2831       C  0.16000627  0.79383191  0.85568696    -0.05200
C2832       C  0.17204885  0.80600500  0.85429592    -0.22600
H2833       H  0.18629825  0.83405994  0.83802065     0.19200
H2834       H  0.13157782  0.81231996  0.81931619     0.18000
H2835       H  0.13622104  0.83638446  0.79394203     0.14300
H2836       H  0.18389921  0.80633055  0.86025560     0.14200
H2837       H  0.18262327  0.85416456  0.81096619     0.32300
H2838       H  0.13725268  0.78934356  0.84311042     0.35100
C2839       C  0.38541950  0.92117188  0.79051449     0.20700
C2840       C  0.38686073  0.92800301  0.80625527    -0.39200
C2841       C  0.40286815  0.93166836  0.81142172     0.19700
C2842       C  0.41643929  0.92896954  0.80157265     0.22300
C2843       C  0.41501957  0.92204149  0.78581224    -0.39700
C2844       C  0.39896597  0.91817526  0.78069504     0.21100
N2845       N  0.37171668  0.91519466  0.78356720    -0.33000
C2846       C  0.37645042  0.90804009  0.76931375    -0.10500
C2847       C  0.39338878  0.90981924  0.76698770    -0.29300
N2848       N  0.43029609  0.93325105  0.80949050    -0.45900
C2849       C  0.42552956  0.93852350  0.82457481    -0.05200
C2850       C  0.40848144  0.93770134  0.82619006    -0.22600
H2851       H  0.37630533  0.92984029  0.81412680     0.19200
H2852       H  0.42566335  0.91939523  0.77830172     0.18000
H2853       H  0.40078981  0.90453373  0.75730859     0.14300
H2854       H  0.40112925  0.94121330  0.83667949     0.14200
H2855       H  0.36001200  0.91489322  0.78882989     0.32300
H2856       H  0.44227457  0.93238357  0.80497573     0.35100
C2857       C  0.34105673  0.81297633  0.79440020     0.20700
C2858       C  0.33182430  0.80052049  0.80181748    -0.39200
C2859       C  0.33940947  0.79259751  0.81496453     0.19700
C2860       C  0.35500130  0.79676885  0.82029333     0.22300
C2861       C  0.36422322  0.80924045  0.81290251    -0.39700
C2862       C  0.35663647  0.81716202  0.79975415     0.21100
N2863       N  0.33635635  0.82276152  0.78210512    -0.33000
C2864       C  0.34900944  0.83326415  0.77967915    -0.10500
C2865       C  0.36191263  0.83013900  0.79038873    -0.29300
N2866       N  0.35923747  0.78777177  0.83332380    -0.45900
C2867       C  0.34622263  0.77787984  0.83632541    -0.05200
C2868       C  0.33362439  0.78046379  0.82513592    -0.22600
H2869       H  0.31954462  0.79741481  0.79782044     0.19200
H2870       H  0.37629450  0.81269211  0.81723650     0.18000
H2871       H  0.37337336  0.83677539  0.79148651     0.14300
H2872       H  0.32172711  0.77455039  0.82475360     0.14200
H2873       H  0.32508742  0.82258702  0.77602703     0.32300
H2874       H  0.37013984  0.78856589  0.83999319     0.35100
C2875       C  0.27300395  0.88668786  0.75595869     0.20700
C2876       C  0.25902194  0.88825923  0.76594107    -0.39200
C2877       C  0.24387704  0.88716975  0.75787135     0.19700
C2878       C  0.24279741  0.88436994  0.74117508     0.22300
C2879       C  0.25677705  0.88287283  0.73117775    -0.39700
C2880       C  0.27192215  0.88429968  0.73920072     0.21100
N2881       N  0.28874096  0.88640779  0.76080531    -0.33000
C2882       C  0.29777502  0.88400333  0.74704766    -0.10500
C2883       C  0.28773924  0.88271853  0.73327931    -0.29300
N2884       N  0.22708541  0.88228664  0.73670603    -0.45900
C2885       C  0.21807979  0.88384545  0.75060324    -0.05200
C2886       C  0.22807964  0.88711096  0.76405922    -0.22600
H2887       H  0.25987757  0.88981729  0.77908137     0.19200
H2888       H  0.25591840  0.88038367  0.71817935     0.18000
H2889       H  0.29145266  0.88006804  0.72081270     0.14300
H2890       H  0.22440513  0.88805270  0.77677880     0.14200
H2891       H  0.29306025  0.88729548  0.77281246     0.32300
H2892       H  0.22279420  0.87923183  0.72504299     0.35100
C2893       C  0.16181338  0.67539280  0.66242027     0.20700
C2894       C  0.17021461  0.66200882  0.66926023    -0.39200
C2895       C  0.16267443  0.65452841  0.68287375     0.19700
C2896       C  0.14792196  0.66004927  0.68923925     0.22300
C2897       C  0.13947910  0.67333526  0.68234411    -0.39700
C2898       C  0.14697416  0.68075411  0.66871743     0.21100
N2899       N  0.16732301  0.68575137  0.65078434    -0.33000
C2900       C  0.15598837  0.69786961  0.64974802    -0.10500
C2901       C  0.14303123  0.69502393  0.66062066    -0.29300
N2902       N  0.14437484  0.65233630  0.70337518    -0.45900
C2903       C  0.15694431  0.64183069  0.70614541    -0.05200
C2904       C  0.16849312  0.64269466  0.69347790    -0.22600
H2905       H  0.18217464  0.65824892  0.66485655     0.19200
H2906       H  0.12833031  0.67812653  0.68775612     0.18000
H2907       H  0.13283503  0.70308242  0.66328204     0.14300
H2908       H  0.18027080  0.63661356  0.69289583     0.14200
H2909       H  0.17868546  0.68528060  0.64483364     0.32300
H2910       H  0.13457793  0.65489977  0.71125393     0.35100
C2911       C  0.15394921  0.78809469  0.68946892     0.20700
C2912       C  0.14638247  0.80216745  0.69561566    -0.39200
C2913       C  0.15464829  0.81005300  0.70836959     0.19700
C2914       C  0.16926718  0.80429360  0.71476143     0.22300
C2915       C  0.17682819  0.79009525  0.70866000    -0.39700
C2916       C  0.16864294  0.78229879  0.69568098     0.21100
N2917       N  0.14956008  0.77971821  0.67604848    -0.33000
C2918       C  0.16165655  0.76869205  0.67349969    -0.10500
C2919       C  0.17367871  0.76972647  0.68558677    -0.29300
N2920       N  0.17529154  0.81487283  0.72588998    -0.45900
C2921       C  0.16446514  0.82745229  0.72631458    -0.05200
C2922       C  0.15142179  0.82481734  0.71567895    -0.22600
H2923       H  0.13532743  0.80712678  0.69024548     0.19200
H2924       H  0.18862657  0.78594888  0.71306622     0.18000
H2925       H  0.18514628  0.76308700  0.68614584     0.14300
H2926       H  0.14130304  0.83297608  0.71311753     0.14200
H2927       H  0.13960046  0.78216997  0.66840497     0.32300
H2928       H  0.18637461  0.81395802  0.73222711     0.35100
C2929       C  0.38227500  0.70262095  0.57856656     0.20700
C2930       C  0.38458134  0.68683726  0.57201177    -0.39200
C2931       C  0.40057831  0.68314597  0.56662894     0.19700
C2932       C  0.41326762  0.69436925  0.56756389     0.22300
C2933       C  0.41095571  0.71015308  0.57410268    -0.39700
C2934       C  0.39498864  0.71382244  0.57960365     0.21100
N2935       N  0.36859574  0.70864278  0.58563559    -0.33000
C2936       C  0.37257372  0.72375528  0.59136923    -0.10500
C2937       C  0.38894323  0.72744865  0.58772552    -0.29300
N2938       N  0.42739194  0.68774026  0.56209502    -0.45900
C2939       C  0.42378226  0.67209323  0.55773371    -0.05200
C2940       C  0.40710738  0.66882772  0.56036797    -0.22600
H2941       H  0.37474315  0.67792564  0.57155700     0.19200
H2942       H  0.42097077  0.71880188  0.57522570     0.18000
H2943       H  0.39576585  0.73822015  0.59138576     0.14300
H2944       H  0.40056709  0.65753555  0.55801215     0.14200
H2945       H  0.35745936  0.70248041  0.58725078     0.32300
H2946       H  0.43885726  0.69347027  0.56168876     0.35100
C2947       C  0.33616481  0.70329074  0.68669917     0.20700
C2948       C  0.32676391  0.69521074  0.69864396    -0.39200
C2949       C  0.33491077  0.68280938  0.70721916     0.19700
C2950       C  0.35120382  0.67895413  0.70421898     0.22300
C2951       C  0.36057287  0.68701214  0.69232768    -0.39700
C2952       C  0.35239901  0.69923679  0.68365849     0.21100
N2953       N  0.33105967  0.71478418  0.67615560    -0.33000
C2954       C  0.34412013  0.71783641  0.66630377    -0.10500
C2955       C  0.35765271  0.70846620  0.67063630    -0.29300
N2956       N  0.35593657  0.66629075  0.71342037    -0.45900
C2957       C  0.34253682  0.66190048  0.72219930    -0.05200
C2958       C  0.32916933  0.67193933  0.71879297    -0.22600
H2959       H  0.31395189  0.69803052  0.70075424     0.19200
H2960       H  0.37315895  0.68366736  0.68968341     0.18000
H2961       H  0.36954220  0.70806421  0.66468849     0.14300
H2962       H  0.31688386  0.67115414  0.72382439     0.14200
H2963       H  0.31929264  0.71976244  0.67529673     0.32300
H2964       H  0.36744655  0.66067304  0.71339297     0.35100
C2965       C  0.35102931  0.81505044  0.66033657     0.20700
C2966       C  0.34370648  0.82954176  0.66622737    -0.39200
C2967       C  0.35105347  0.83667334  0.68013899     0.19700
C2968       C  0.36464634  0.82983056  0.68758310     0.22300
C2969       C  0.37190578  0.81536998  0.68174557    -0.39700
C2970       C  0.36454860  0.80823728  0.66792467     0.21100
N2971       N  0.34548024  0.80508555  0.64835280    -0.33000
C2972       C  0.35535788  0.79171418  0.64850143    -0.10500
C2973       C  0.36744143  0.79332452  0.66050244    -0.29300
N2974       N  0.36820569  0.83772730  0.70160145    -0.45900
C2975       C  0.35678356  0.84964989  0.70328998    -0.05200
C2976       C  0.34597350  0.84954075  0.69000172    -0.22600
H2977       H  0.33264861  0.83447320  0.66084406     0.19200
H2978       H  0.38205019  0.80962469  0.68802992     0.18000
H2979       H  0.37645601  0.78430086  0.66405038     0.14300
H2980       H  0.33502029  0.85686237  0.68853982     0.14200
H2981       H  0.33491518  0.80672297  0.64132451     0.32300
H2982       H  0.37717611  0.83446593  0.71010637     0.35100
C2983       C  0.26906371  0.75706218  0.61115556     0.20700
C2984       C  0.25466737  0.76628358  0.61340401    -0.39200
C2985       C  0.23987388  0.75738348  0.61325314     0.19700
C2986       C  0.23945335  0.74063035  0.61072967     0.22300
C2987       C  0.25381804  0.73140810  0.60872644    -0.39700
C2988       C  0.26858925  0.74024215  0.60916122     0.21100
N2989       N  0.28468886  0.76232981  0.61248276    -0.33000
C2990       C  0.29415676  0.74871493  0.61176246    -0.10500
C2991       C  0.28455135  0.73474180  0.60956814    -0.29300
N2992       N  0.22403419  0.73488111  0.61201049    -0.45900
C2993       C  0.21457418  0.74797252  0.61571885    -0.05200
C2994       C  0.22398574  0.76225297  0.61659882    -0.22600
H2995       H  0.25500816  0.77930546  0.61581227     0.19200
H2996       H  0.25354581  0.71821205  0.60763258     0.18000
H2997       H  0.28863116  0.72214862  0.60942415     0.14300
H2998       H  0.21985796  0.77440351  0.61989331     0.14200
H2999       H  0.28858241  0.77424470  0.61504676     0.32300
H3000       H  0.22030436  0.72266193  0.61136252     0.35100
C3001       C  0.90405114  0.06327278  0.31744621     0.20700
C3002       C  0.88782955  0.06840877  0.31478747    -0.39200
C3003       C  0.88459076  0.07535047  0.29941155     0.19700
C3004       C  0.89657867  0.07713279  0.28750551     0.22300
C3005       C  0.91288392  0.07200289  0.29018620    -0.39700
C3006       C  0.91611497  0.06495081  0.30561204     0.21100
N3007       N  0.91019591  0.05655235  0.33116081    -0.33000
C3008       C  0.92636856  0.05380921  0.32820191    -0.10500
C3009       C  0.93048669  0.05887868  0.31229686    -0.29300
N3010       N  0.89042218  0.08480164  0.27422409    -0.45900
C3011       C  0.87441782  0.08795688  0.27777230    -0.05200
C3012       C  0.87039143  0.08218221  0.29336080    -0.22600
H3013       H  0.87843178  0.06727783  0.32412040     0.19200
H3014       H  0.92238513  0.07353857  0.28101847     0.18000
H3015       H  0.94242780  0.05844353  0.30647272     0.14300
H3016       H  0.85879030  0.08348980  0.29972702     0.14200
H3017       H  0.90364217  0.05389967  0.34184172     0.32300
H3018       H  0.89686927  0.08830287  0.26371716     0.35100
C3019       C  0.88508210  0.99458859  0.40551910     0.20700
C3020       C  0.88965474  0.01039408  0.40051640    -0.39200
C3021       C  0.90263085  0.01124786  0.38921312     0.19700
C3022       C  0.91047050  0.99738794  0.38344825     0.22300
C3023       C  0.90585599  0.98156287  0.38840331    -0.39700
C3024       C  0.89280610  0.98070378  0.39963227     0.21100
N3025       N  0.87370441  0.99061966  0.41674743    -0.33000
C3026       C  0.87413328  0.97408259  0.41809182    -0.10500
C3027       C  0.88581066  0.96741992  0.40747010    -0.29300
N3028       N  0.92287805  0.00148033  0.37339580    -0.45900
C3029       C  0.92303232  0.01809587  0.37270857    -0.05200
C3030       C  0.91046102  0.02461728  0.38236493    -0.22600
H3031       H  0.88374549  0.02124302  0.40532376     0.19200
H3032       H  0.91217142  0.97074409  0.38406830     0.18000
H3033       H  0.88929839  0.95470503  0.40625991     0.14300
H3034       H  0.90779312  0.03738799  0.38461038     0.14200
H3035       H  0.86630942  0.99876406  0.42330188     0.32300
H3036       H  0.93081841  0.99334357  0.36751555     0.35100
C3037       C  0.83835505  0.99094293  0.48595166     0.20700
C3038       C  0.83330037  0.00685538  0.49017703    -0.39200
C3039       C  0.83955170  0.01313657  0.50495707     0.19700
C3040       C  0.84999712  0.00422956  0.51481479     0.22300
C3041       C  0.85504623  0.98833287  0.51058856    -0.39700
C3042       C  0.84884498  0.98207247  0.49579148     0.21100
N3043       N  0.83612090  0.98328597  0.47150993    -0.33000
C3044       C  0.84553409  0.96958981  0.47186446    -0.10500
C3045       C  0.85337945  0.96831116  0.48708169    -0.29300
N3046       N  0.85561588  0.01348418  0.52727025    -0.45900
C3047       C  0.84886593  0.02855552  0.52531538    -0.05200
C3048       C  0.83862446  0.02867180  0.51156882    -0.22600
H3049       H  0.82582667  0.01417309  0.48207424     0.19200
H3050       H  0.86393589  0.98169733  0.51781111     0.18000
H3051       H  0.86271018  0.95968594  0.49072427     0.14300
H3052       H  0.83226078  0.03909154  0.50647973     0.14200
H3053       H  0.82995443  0.98796440  0.46134678     0.32300
H3054       H  0.86433785  0.00985172  0.53584255     0.35100
C3055       C  0.91534837  0.19918773  0.43599705     0.20700
C3056       C  0.91348637  0.21379024  0.42710703    -0.39200
C3057       C  0.89731983  0.21792180  0.42279101     0.19700
C3058       C  0.88402291  0.20825801  0.42708940     0.22300
C3059       C  0.88589272  0.19361577  0.43590457    -0.39700
C3060       C  0.90206871  0.18942578  0.44009776     0.21100
N3061       N  0.92946944  0.19227990  0.44096404    -0.33000
C3062       C  0.92522211  0.17788634  0.44809941    -0.10500
C3063       C  0.90820226  0.17570168  0.44779450    -0.29300
N3064       N  0.87011598  0.21419578  0.42055394    -0.45900
C3065       C  0.87453844  0.22765458  0.41187892    -0.05200
C3066       C  0.89142080  0.23044589  0.41308815    -0.22600
H3067       H  0.92391206  0.22116278  0.42343045     0.19200
H3068       H  0.87555369  0.18580666  0.43885094     0.18000
H3069       H  0.90124720  0.16541750  0.45246821     0.14300
H3070       H  0.89855320  0.23973178  0.40684517     0.14200
H3071       H  0.94131701  0.19685440  0.43914394     0.32300
H3072       H  0.85845798  0.20887378  0.42117422     0.35100
C3073       C  0.95554189  0.11097070  0.41363645     0.20700
C3074       C  0.96490308  0.10179611  0.40250553    -0.39200
C3075       C  0.95642670  0.08961103  0.39386567     0.19700
C3076       C  0.93983659  0.08671227  0.39599709     0.22300
C3077       C  0.93039878  0.09596778  0.40718724    -0.39700
C3078       C  0.93894077  0.10822030  0.41593688     0.21100
N3079       N  0.96102977  0.12269596  0.42379820    -0.33000
C3080       C  0.94791762  0.12755985  0.43288650    -0.10500
C3081       C  0.93384043  0.11885155  0.42819174    -0.29300
N3082       N  0.93493195  0.07400539  0.38657000    -0.45900
C3083       C  0.94857998  0.06874299  0.37848493    -0.05200
C3084       C  0.96215313  0.07833007  0.38275424    -0.22600
H3085       H  0.97795642  0.10378273  0.40092585     0.19200
H3086       H  0.91746109  0.09362045  0.40915181     0.18000
H3087       H  0.92165936  0.11967000  0.43343666     0.14300
H3088       H  0.97468146  0.07720247  0.37848336     0.14200
H3089       H  0.97312688  0.12685904  0.42456115     0.32300
H3090       H  0.92314217  0.06899259  0.38604795     0.35100
C3091       C  0.90391995  0.11716348  0.48937858     0.20700
C3092       C  0.89116926  0.10566523  0.48844323    -0.39200
C3093       C  0.88626058  0.09867294  0.50334362     0.19700
C3094       C  0.89335603  0.10286489  0.51815439     0.22300
C3095       C  0.90620964  0.11435642  0.51909487    -0.39700
C3096       C  0.91121537  0.12128048  0.50411037     0.21100
N3097       N  0.91142091  0.12472159  0.47679702    -0.33000
C3098       C  0.92377967  0.13362440  0.48345672    -0.10500
C3099       C  0.92392560  0.13186755  0.50052894    -0.29300
N3100       N  0.88688785  0.09386371  0.53041685    -0.45900
C3101       C  0.87576937  0.08373371  0.52326347    -0.05200
C3102       C  0.87503652  0.08647516  0.50640942    -0.22600
H3103       H  0.88577027  0.10206997  0.47687898     0.19200
H3104       H  0.91216797  0.11734823  0.53055496     0.18000
H3105       H  0.93246380  0.13717943  0.50917327     0.14300
H3106       H  0.86758202  0.08009423  0.49748429     0.14200
H3107       H  0.90871986  0.12322808  0.46439007     0.32300
H3108       H  0.89035173  0.09407855  0.54272297     0.35100
C3109       C  0.07556257  0.90693250  0.30551876     0.20700
C3110       C  0.08388796  0.90558402  0.29039107    -0.39200
C3111       C  0.08800831  0.88959351  0.28536471     0.19700
C3112       C  0.08402071  0.87604358  0.29470224     0.22300
C3113       C  0.07588165  0.87741848  0.30986404    -0.39700
C3114       C  0.07189696  0.89336179  0.31493768     0.21100
N3115       N  0.07058513  0.92070493  0.31316479    -0.33000
C3116       C  0.06388751  0.91592104  0.32767458    -0.10500
C3117       C  0.06454318  0.89891740  0.32919771    -0.29300
N3118       N  0.09009235  0.86233598  0.28786473    -0.45900
C3119       C  0.09824435  0.86704324  0.27414006    -0.05200
C3120       C  0.09711937  0.88401029  0.27209048    -0.22600
H3121       H  0.08720983  0.91622372  0.28323235     0.19200
H3122       H  0.07317974  0.86683802  0.31735744     0.18000
H3123       H  0.06015647  0.89158412  0.33933372     0.14300
H3124       H  0.10306566  0.89136573  0.26278704     0.14200
H3125       H  0.07199099  0.93266872  0.30891307     0.32300
H3126       H  0.08958213  0.85056523  0.29280035     0.35100
C3127       C  0.99363758  0.00403544  0.33837606     0.20700
C3128       C  0.99891402  0.98902381  0.33183480    -0.39200
C3129       C  0.01385341  0.98299290  0.33786770     0.19700
C3130       C  0.02287260  0.99121311  0.34962080     0.22300
C3131       C  0.01758129  0.00625425  0.35619393    -0.39700
C3132       C  0.00264893  0.01234230  0.35007105     0.21100
N3133       N  0.97893324  0.01117471  0.33617898    -0.33000
C3134       C  0.97831864  0.02409326  0.34663793    -0.10500
C3135       C  0.99311543  0.02529004  0.35535944    -0.29300
N3136       N  0.03550621  0.98193380  0.35478607    -0.45900
C3137       C  0.03451434  0.96760350  0.34630582    -0.05200
C3138       C  0.02118291  0.96797766  0.33556178    -0.22600
H3139       H  0.99146905  0.98208935  0.32331963     0.19200
H3140       H  0.02414352  0.01232580  0.36599508     0.18000
H3141       H  0.99600420  0.03336060  0.36545604     0.14300
H3142       H  0.01658119  0.95796362  0.32818098     0.14200
H3143       H  0.96930482  0.00670477  0.32901108     0.32300
H3144       H  0.04334264  0.98475452  0.36448089     0.35100
C3145       C  0.91711299  0.88537342  0.43586839     0.20700
C3146       C  0.90634218  0.89481148  0.42631170    -0.39200
C3147       C  0.89628216  0.90581078  0.43502398     0.19700
C3148       C  0.89696459  0.90723666  0.45188514     0.22300
C3149       C  0.90770230  0.89787538  0.46137790    -0.39700
C3150       C  0.91767816  0.88692894  0.45271572     0.21100
N3151       N  0.92817703  0.87427003  0.43066166    -0.33000
C3152       C  0.93585715  0.86874860  0.44434417    -0.10500
C3153       C  0.92951070  0.87642758  0.45830676    -0.29300
N3154       N  0.88651065  0.91870496  0.45728889    -0.45900
C3155       C  0.87900639  0.92482787  0.44380764    -0.05200
C3156       C  0.88480111  0.91699418  0.42964856    -0.22600
H3157       H  0.90592882  0.89377994  0.41309932     0.19200
H3158       H  0.90833917  0.89912376  0.47456520     0.18000
H3159       H  0.93314836  0.87488095  0.47093344     0.14300
H3160       H  0.88136978  0.91925946  0.41707285     0.14200
H3161       H  0.93038944  0.87087756  0.41852510     0.32300
H3162       H  0.88495122  0.92224146  0.46948186     0.35100
C3163       C  0.00588363  0.87477435  0.40564814     0.20700
C3164       C  0.02172709  0.88012978  0.40136421    -0.39200
C3165       C  0.02251667  0.89284171  0.38987245     0.19700
C3166       C  0.00854982  0.89975658  0.38326651     0.22300
C3167       C  0.99267386  0.89431297  0.38745793    -0.39700
C3168       C  0.99189244  0.88150874  0.39889763     0.21100
N3169       N  0.00192788  0.86362878  0.41704917    -0.33000
C3170       C  0.98527223  0.86324544  0.41774216    -0.10500
C3171       C  0.97855338  0.87409177  0.40638308    -0.29300
N3172       N  0.01257900  0.91209937  0.37316662    -0.45900
C3173       C  0.02925364  0.91303313  0.37321635    -0.05200
C3174       C  0.03588178  0.90113479  0.38347706    -0.22600
H3175       H  0.03263904  0.87499934  0.40685516     0.19200
H3176       H  0.98174105  0.89988492  0.38245871     0.18000
H3177       H  0.96571553  0.87691150  0.40454220     0.14300
H3178       H  0.04869286  0.89913987  0.38629305     0.14200
H3179       H  0.01017831  0.85702058  0.42420830     0.32300
H3180       H  0.00439895  0.91943101  0.36665896     0.35100
C3181       C  0.08583008  0.21273795  0.61571760     0.20700
C3182       C  0.08009298  0.21073701  0.59959952    -0.39200
C3183       C  0.07400300  0.19511410  0.59562323     0.19700
C3184       C  0.07363619  0.18245379  0.60682262     0.22300
C3185       C  0.07929692  0.18445985  0.62294413    -0.39700
C3186       C  0.08542019  0.20005113  0.62691533     0.21100
N3187       N  0.09352220  0.22589771  0.62209781    -0.33000
C3188       C  0.09819961  0.22149599  0.63740520    -0.10500
C3189       C  0.09320503  0.20551600  0.64087385    -0.29300
N3190       N  0.06785272  0.16865756  0.59986590    -0.45900
C3191       C  0.06444824  0.17248758  0.58405956    -0.05200
C3192       C  0.06812969  0.18895169  0.58101697    -0.22600
H3193       H  0.08075015  0.22048827  0.59067226     0.19200
H3194       H  0.07940044  0.17446489  0.63161781     0.18000
H3195       H  0.09595755  0.19844519  0.65171661     0.14300
H3196       H  0.06694603  0.19553680  0.56960296     0.14200
H3197       H  0.09638853  0.23677906  0.61603221     0.32300
H3198       H  0.06627979  0.15738425  0.60564707     0.35100
C3199       C  0.99375935  0.16873450  0.49634211     0.20700
C3200       C  0.99896291  0.17400473  0.51188782    -0.39200
C3201       C  0.01411698  0.16784206  0.51724184     0.19700
C3202       C  0.02344250  0.15724008  0.50784239     0.22300
C3203       C  0.01830517  0.15211003  0.49222870    -0.39700
C3204       C  0.00312439  0.15823646  0.48688526     0.21100
N3205       N  0.97875283  0.17064059  0.48975631    -0.33000
C3206       C  0.97830820  0.16104008  0.47615683    -0.10500
C3207       C  0.99354672  0.15342705  0.47381742    -0.29300
N3208       N  0.03599362  0.15114350  0.51663524    -0.45900
C3209       C  0.03454204  0.15772670  0.53187313    -0.05200
C3210       C  0.02120345  0.16845439  0.53252939    -0.22600
H3211       H  0.99121851  0.18139344  0.51974489     0.19200
H3212       H  0.02504534  0.14304982  0.48526139     0.18000
H3213       H  0.99675784  0.14409987  0.46498512     0.14300
H3214       H  0.01636313  0.17454269  0.54328999     0.14200
H3215       H  0.96883924  0.17677465  0.49508660     0.32300
H3216       H  0.04401900  0.14196705  0.51279560     0.35100
C3217       C  0.91685406  0.04836924  0.61342508     0.20700
C3218       C  0.90551469  0.03909300  0.60436087    -0.39200
C3219       C  0.89666354  0.04762110  0.59237503     0.19700
C3220       C  0.89883278  0.06416490  0.58963112     0.22300
C3221       C  0.91022783  0.07347165  0.59871279    -0.39700
C3222       C  0.91914427  0.06490448  0.61071722     0.21100
N3223       N  0.92721449  0.04290314  0.62497966    -0.33000
C3224       C  0.93636834  0.05598680  0.62973518    -0.10500
C3225       C  0.93154482  0.06998922  0.62113606    -0.29300
N3226       N  0.88919256  0.06923782  0.57722641    -0.45900
C3227       C  0.88088533  0.05578934  0.57192143    -0.05200
C3228       C  0.88526599  0.04209737  0.58118724    -0.22600
H3229       H  0.90391535  0.02609134  0.60629679     0.19200
H3230       H  0.91219242  0.08636602  0.59643001     0.18000
H3231       H  0.93676232  0.08214114  0.62188139     0.14300
H3232       H  0.88087498  0.02966738  0.57986741     0.14200
H3233       H  0.92809836  0.03086017  0.62910068     0.32300
H3234       H  0.88869557  0.08104455  0.57241045     0.35100
C3235       C  0.00679890  0.09246676  0.62134496     0.20700
C3236       C  0.02250192  0.09784192  0.61659951    -0.39200
C3237       C  0.02292214  0.10982175  0.60431908     0.19700
C3238       C  0.00877928  0.11582056  0.59720349     0.22300
C3239       C  0.99306584  0.11049321  0.60199425    -0.39700
C3240       C  0.99263498  0.09865531  0.61441993     0.21100
N3241       N  0.00314049  0.08101212  0.63255044    -0.33000
C3242       C  0.98650669  0.07995211  0.63291467    -0.10500
C3243       C  0.97951159  0.09082612  0.62178578    -0.29300
N3244       N  0.01248458  0.12666107  0.58541227    -0.45900
C3245       C  0.02913434  0.12764330  0.58497604    -0.05200
C3246       C  0.03606218  0.11736613  0.59671279    -0.22600
H3247       H  0.03357982  0.09296348  0.62199206     0.19200
H3248       H  0.98200027  0.11514916  0.59638365     0.18000
H3249       H  0.96662266  0.09245439  0.61909001     0.14300
H3250       H  0.04894515  0.11522261  0.59902374     0.14200
H3251       H  0.01150769  0.07435002  0.63952806     0.32300
H3252       H  0.00410159  0.13289190  0.57807052     0.35100
C3253       C  0.11841810  0.91567383  0.72055862     0.20700
C3254       C  0.10190177  0.91973046  0.71772673    -0.39200
C3255       C  0.09845947  0.92690212  0.70248528     0.19700
C3256       C  0.11050606  0.92971857  0.69085088     0.22300
C3257       C  0.12704907  0.92568324  0.69367125    -0.39700
C3258       C  0.13050926  0.91857355  0.70896853     0.21100
N3259       N  0.12460672  0.90763393  0.73354560    -0.33000
C3260       C  0.14073590  0.90519397  0.73016365    -0.10500
C3261       C  0.14489242  0.91204067  0.71501539    -0.29300
N3262       N  0.10398770  0.93644197  0.67728530    -0.45900
C3263       C  0.08766231  0.93809091  0.68034644    -0.05200
C3264       C  0.08379891  0.93221128  0.69596053    -0.22600
H3265       H  0.09236622  0.91724088  0.72664511     0.19200
H3266       H  0.13648043  0.92763088  0.68450794     0.18000
H3267       H  0.15658756  0.91126485  0.70873307     0.14300
H3268       H  0.07184763  0.93180337  0.70176871     0.14200
H3269       H  0.11802679  0.90310973  0.74356666     0.32300
H3270       H  0.11035333  0.93997835  0.66674585     0.35100
C3271       C  0.01240695  0.98124686  0.66209437     0.20700
C3272       C  0.99736540  0.98648590  0.65559772    -0.39200
C3273       C  0.99203745  0.00203354  0.66058285     0.19700
C3274       C  0.00109008  0.01172682  0.67112538     0.22300
C3275       C  0.01615759  0.00650456  0.67763752    -0.39700
C3276       C  0.02140194  0.99085290  0.67277584     0.21100
N3277       N  0.02105200  0.96802834  0.65744882    -0.33000
C3278       C  0.03584782  0.96922415  0.66501784    -0.10500
C3279       C  0.03629331  0.98317043  0.67500693    -0.29300
N3280       N  0.99444143  0.02672751  0.67228094    -0.45900
C3281       C  0.98110988  0.02672363  0.66231415    -0.05200
C3282       C  0.97913289  0.01135661  0.65498081    -0.22600
H3283       H  0.99074206  0.97934990  0.64658535     0.19200
H3284       H  0.02367584  0.01440478  0.68519877     0.18000
H3285       H  0.04684683  0.98804038  0.68142382     0.14300
H3286       H  0.97048182  0.00781190  0.64559943     0.14200
H3287       H  0.01750257  0.95974134  0.64839264     0.32300
H3288       H  0.99937927  0.03677822  0.67848756     0.35100
C3289       C  0.21325855  0.07538511  0.62879089     0.20700
C3290       C  0.19728303  0.06924790  0.62664754    -0.39200
C3291       C  0.19414065  0.06181414  0.61146879     0.19700
C3292       C  0.20602251  0.06056277  0.59940001     0.22300
C3293       C  0.22201850  0.06663088  0.60156743    -0.39700
C3294       C  0.22517835  0.07407361  0.61673930     0.21100
N3295       N  0.21886522  0.08421746  0.64149014    -0.33000
C3296       C  0.23443770  0.08861908  0.63751970    -0.10500
C3297       C  0.23889568  0.08237967  0.62222887    -0.29300
N3298       N  0.19975080  0.05375603  0.58579883    -0.45900
C3299       C  0.18369752  0.05067531  0.58913636    -0.05200
C3300       C  0.17978471  0.05549059  0.60511438    -0.22600
H3301       H  0.18784890  0.07064402  0.63590888     0.19200
H3302       H  0.23117855  0.06604686  0.59195313     0.18000
H3303       H  0.25018347  0.08459521  0.61555765     0.14300
H3304       H  0.16801948  0.05475060  0.61124953     0.14200
H3305       H  0.21220623  0.08777198  0.65185520     0.32300
H3306       H  0.20599445  0.05184387  0.57477700     0.35100
C3307       C  0.11938602  0.08550671  0.55478537     0.20700
C3308       C  0.11140574  0.09705319  0.54490172    -0.39200
C3309       C  0.09883309  0.10600018  0.55253908     0.19700
C3310       C  0.09458479  0.10363079  0.56877321     0.22300
C3311       C  0.10254122  0.09204011  0.57864555    -0.39700
C3312       C  0.11512867  0.08310303  0.57101380     0.21100
N3313       N  0.13136166  0.07516637  0.55026897    -0.33000
C3314       C  0.13477961  0.06600208  0.56368811    -0.10500
C3315       C  0.12493306  0.07070008  0.57692043    -0.29300
N3316       N  0.08214954  0.11353813  0.57309256    -0.45900
C3317       C  0.07834587  0.12232089  0.55952266    -0.05200
C3318       C  0.08853022  0.11788505  0.54642177    -0.22600
H3319       H  0.11463820  0.09881603  0.53215572     0.19200
H3320       H  0.09909971  0.09004911  0.59130260     0.18000
H3321       H  0.12451419  0.06540049  0.58904516     0.14300
H3322       H  0.08845952  0.12267856  0.53407906     0.14200
H3323       H  0.13669516  0.07437407  0.53865219     0.32300
H3324       H  0.07645646  0.11397274  0.58455016     0.35100
C3325       C  0.12598887  0.99667399  0.60204821     0.20700
C3326       C  0.12023191  0.98107716  0.60616505    -0.39200
C3327       C  0.10853455  0.98053334  0.61867835     0.19700
C3328       C  0.10286197  0.99449653  0.62643006     0.22300
C3329       C  0.10868661  0.01018679  0.62234954    -0.39700
C3330       C  0.12054272  0.01071068  0.60982791     0.21100
N3331       N  0.13664898  0.00031509  0.59011382    -0.33000
C3332       C  0.13805711  0.01683694  0.59007908    -0.10500
C3333       C  0.12829994  0.02379439  0.60236521    -0.29300
N3334       N  0.09120273  0.99063832  0.63741975    -0.45900
C3335       C  0.08956830  0.97410579  0.63664923    -0.05200
C3336       C  0.10022885  0.96738544  0.62515171    -0.22600
H3337       H  0.12438734  0.97016526  0.59988269     0.19200
H3338       H  0.10413681  0.02114286  0.62827130     0.18000
H3339       H  0.12657717  0.03664120  0.60505906     0.14300
H3340       H  0.10129707  0.95468875  0.62152910     0.14200
H3341       H  0.14243209  0.99190855  0.58239087     0.32300
H3342       H  0.08470289  0.99878908  0.64485745     0.35100
C3343       C  0.21482042  0.87117829  0.43001565     0.20700
C3344       C  0.19891430  0.87394255  0.43609074    -0.39200
C3345       C  0.19583917  0.88972045  0.44213965     0.19700
C3346       C  0.20771067  0.90183286  0.44223693     0.22300
C3347       C  0.22365847  0.89907323  0.43613016    -0.39700
C3348       C  0.22674369  0.88326759  0.42999630     0.21100
N3349       N  0.22024359  0.85772707  0.42224036    -0.33000
C3350       C  0.23568453  0.86121911  0.41702594    -0.10500
C3351       C  0.24026488  0.87700498  0.42180287    -0.29300
N3352       N  0.20143010  0.91597587  0.44795244    -0.45900
C3353       C  0.18537176  0.91290353  0.45138075    -0.05200
C3354       C  0.18151935  0.89658021  0.44797412    -0.22600
H3355       H  0.18944757  0.86463970  0.43562131     0.19200
H3356       H  0.23281873  0.90867467  0.43569486     0.18000
H3357       H  0.25141916  0.88347110  0.41857618     0.14300
H3358       H  0.16980166  0.89048198  0.44935837     0.14200
H3359       H  0.21343141  0.84719005  0.41966887     0.32300
H3360       H  0.20762106  0.92712897  0.44896015     0.35100
C3361       C  0.17680283  0.98025414  0.50044455     0.20700
C3362       C  0.18246620  0.98484772  0.51603178    -0.39200
C3363       C  0.17704130  0.00008393  0.52183065     0.19700
C3364       C  0.16674483  0.00998707  0.51279213     0.22300
C3365       C  0.16112011  0.00540915  0.49719190    -0.39700
C3366       C  0.16654800  0.99017644  0.49138446     0.21100
N3367       N  0.17826804  0.96549439  0.49332550    -0.33000
C3368       C  0.16869634  0.96580586  0.47974020    -0.10500
C3369       C  0.16141168  0.98120611  0.47800886    -0.29300
N3370       N  0.16147128  0.02267938  0.52185390    -0.45900
C3371       C  0.16827129  0.02079651  0.53691641    -0.05200
C3372       C  0.17829253  0.00694144  0.53721235    -0.22600
H3373       H  0.18969429  0.97669048  0.52353179     0.19200
H3374       H  0.15230672  0.01269498  0.49052439     0.18000
H3375       H  0.15219417  0.98490899  0.46927875     0.14300
H3376       H  0.18431995  0.00171684  0.54777411     0.14200
H3377       H  0.18419990  0.95529859  0.49821169     0.32300
H3378       H  0.15260831  0.03110355  0.51823029     0.35100
C3379       C  0.12179392  0.94469297  0.41354330     0.20700
C3380       C  0.11430286  0.95369702  0.40094343    -0.39200
C3381       C  0.10169862  0.94562660  0.39235361     0.19700
C3382       C  0.09697287  0.92977435  0.39596133     0.22300
C3383       C  0.10455606  0.92074333  0.40848400    -0.39700
C3384       C  0.11714495  0.92881020  0.41709263     0.21100
N3385       N  0.13338786  0.94989492  0.42408609    -0.33000
C3386       C  0.13623490  0.93722438  0.43445845    -0.10500
C3387       C  0.12636671  0.92382223  0.43035910    -0.29300
N3388       N  0.08402350  0.92523929  0.38674290    -0.45900
C3389       C  0.08027651  0.93835316  0.37729254    -0.05200
C3390       C  0.09120316  0.95124575  0.38036994    -0.22600
H3391       H  0.11769492  0.96623855  0.39834738     0.19200
H3392       H  0.10065060  0.90846900  0.41158451     0.18000
H3393       H  0.12552957  0.91219941  0.43661758     0.14300
H3394       H  0.09116648  0.96332749  0.37498313     0.14200
H3395       H  0.13886451  0.96145504  0.42426517     0.32300
H3396       H  0.07765167  0.91416540  0.38745124     0.35100
C3397       C  0.11828809  0.77814789  0.58137956     0.20700
C3398       C  0.10314013  0.77978687  0.57323912    -0.39200
C3399       C  0.09901354  0.79574729  0.56819488     0.19700
C3400       C  0.10917802  0.80900258  0.57106624     0.22300
C3401       C  0.12426813  0.80737704  0.57914177    -0.39700
C3402       C  0.12838950  0.79149913  0.58414221     0.21100
N3403       N  0.12462376  0.76457204  0.58833297    -0.33000
C3404       C  0.13879611  0.76942445  0.59563177    -0.10500
C3405       C  0.14154989  0.78609345  0.59314111    -0.29300
N3406       N  0.10236426  0.82290723  0.56554582    -0.45900
C3407       C  0.08763389  0.81865159  0.55903586    -0.05200
C3408       C  0.08517722  0.80171042  0.56045773    -0.22600
H3409       H  0.09502393  0.76947380  0.57126419     0.19200
H3410       H  0.13209429  0.81779661  0.58166128     0.18000
H3411       H  0.15143824  0.79347196  0.59805460     0.14300
H3412       H  0.07463462  0.79464778  0.55657456     0.14200
H3413       H  0.11925740  0.75296553  0.58878920     0.32300
H3414       H  0.10756781  0.83455543  0.56629774     0.35100
C3415       C  0.07132124  0.88615552  0.59098552     0.20700
C3416       C  0.08091342  0.89601747  0.60143235    -0.39200
C3417       C  0.07218170  0.90647247  0.61205671     0.19700
C3418       C  0.05522808  0.90703612  0.61222379     0.22300
C3419       C  0.04565882  0.89719822  0.60180495    -0.39700
C3420       C  0.05437285  0.88676821  0.59121943     0.21100
N3421       N  0.07660952  0.87540799  0.57959018    -0.33000
C3422       C  0.06291988  0.86906813  0.57244731    -0.10500
C3423       C  0.04881809  0.87594627  0.57948937    -0.29300
N3424       N  0.04984686  0.91819462  0.62310564    -0.45900
C3425       C  0.06344163  0.92495574  0.63002581    -0.05200
C3426       C  0.07763252  0.91783970  0.62340568    -0.22600
H3427       H  0.09419505  0.89568005  0.60120719     0.19200
H3428       H  0.03238090  0.89773209  0.60183616     0.18000
H3429       H  0.03612693  0.87355732  0.57643356     0.14300
H3430       H  0.09028167  0.92071816  0.62620323     0.14200
H3431       H  0.08883768  0.87279123  0.57681076     0.32300
H3432       H  0.03757903  0.92107295  0.62540582     0.35100
C3433       C  0.01253230  0.83540943  0.51616988     0.20700
C3434       C  0.99661950  0.84038271  0.51184682    -0.39200
C3435       C  0.99117826  0.83545298  0.49628531     0.19700
C3436       C  0.00079091  0.82611611  0.48588779     0.22300
C3437       C  0.01663016  0.82100610  0.49027231    -0.39700
C3438       C  0.02212045  0.82605011  0.50577123     0.21100
N3439       N  0.02133907  0.84059440  0.52910804    -0.33000
C3440       C  0.03679489  0.83471650  0.52686739    -0.10500
C3441       C  0.03756861  0.82527790  0.51257297    -0.29300
N3442       N  0.99397829  0.82522210  0.47094011    -0.45900
C3443       C  0.98015334  0.83443721  0.47155066    -0.05200
C3444       C  0.97779254  0.84064277  0.48740217    -0.22600
H3445       H  0.98948644  0.84852840  0.51952654     0.19200
H3446       H  0.02455165  0.81458945  0.48175973     0.18000
H3447       H  0.04842950  0.81994091  0.50709085     0.14300
H3448       H  0.96865130  0.84925739  0.49159537     0.14200
H3449       H  0.01718318  0.84867331  0.53809786     0.32300
H3450       H  0.99925806  0.82002676  0.46048014     0.35100
C3451       C  0.12424224  0.89175893  0.49040276     0.20700
C3452       C  0.11260006  0.87915826  0.48927280    -0.39200
C3453       C  0.10583698  0.87387463  0.50416701     0.19700
C3454       C  0.11038313  0.88050374  0.51909868     0.22300
C3455       C  0.12203916  0.89312847  0.52023495    -0.39700
C3456       C  0.12872216  0.89850015  0.50530201     0.21100
N3457       N  0.13154084  0.89969993  0.47794631    -0.33000
C3458       C  0.14057353  0.91177865  0.48491346    -0.10500
C3459       C  0.13925776  0.91126021  0.50200113    -0.29300
N3460       N  0.10153284  0.87387212  0.53135627    -0.45900
C3461       C  0.09115967  0.86307048  0.52412836    -0.05200
C3462       C  0.09357149  0.86270487  0.50718360    -0.22600
H3463       H  0.10870671  0.87418778  0.47760976     0.19200
H3464       H  0.12528268  0.89870248  0.53182524     0.18000
H3465       H  0.14478634  0.91943441  0.51085749     0.14300
H3466       H  0.08696996  0.85552909  0.49819178     0.14200
H3467       H  0.12976881  0.89750381  0.46547299     0.32300
H3468       H  0.10202801  0.87703974  0.54374660     0.35100
C3469       C  0.92500943  0.78902628  0.38011157     0.20700
C3470       C  0.92823749  0.80551684  0.38366571    -0.39200
C3471       C  0.93703472  0.80851681  0.39807751     0.19700
C3472       C  0.94231371  0.79604325  0.40815632     0.22300
C3473       C  0.93905860  0.77947338  0.40461346    -0.39700
C3474       C  0.93011165  0.77644497  0.39019297     0.21100
N3475       N  0.91597499  0.78320278  0.36769468    -0.33000
C3476       C  0.91505117  0.76679098  0.36982037    -0.10500
C3477       C  0.92381840  0.76203235  0.38372383    -0.29300
N3478       N  0.95008357  0.80220652  0.42132175    -0.45900
C3479       C  0.94972259  0.81876371  0.41965630    -0.05200
C3480       C  0.94163979  0.82309336  0.40523674    -0.22600
H3481       H  0.92387966  0.81532894  0.37594112     0.19200
H3482       H  0.94286471  0.76971243  0.41268393     0.18000
H3483       H  0.92475115  0.74987155  0.38884661     0.14300
H3484       H  0.93921422  0.83521657  0.40057588     0.14200
H3485       H  0.91008789  0.79011320  0.35871275     0.32300
H3486       H  0.95520448  0.79542942  0.43083688     0.35100
C3487       C  0.89702744  0.73538109  0.26848799     0.20700
C3488       C  0.90488948  0.74141383  0.25431472    -0.39200
C3489       C  0.89693965  0.73820569  0.23933242     0.19700
C3490       C  0.88229482  0.72962257  0.23861996     0.22300
C3491       C  0.87449299  0.72354642  0.25271570    -0.39700
C3492       C  0.88240648  0.72676926  0.26762137     0.21100
N3493       N  0.90125975  0.73799877  0.28425261    -0.33000
C3494       C  0.88917141  0.73110291  0.29343809    -0.10500
C3495       C  0.87729239  0.72388419  0.28346050    -0.29300
N3496       N  0.87658756  0.72914964  0.22320645    -0.45900
C3497       C  0.88755104  0.73754250  0.21390116    -0.05200
C3498       C  0.90054662  0.74327495  0.22350406    -0.22600
H3499       H  0.91605863  0.74857832  0.25495632     0.19200
H3500       H  0.86278240  0.71728238  0.25216739     0.18000
H3501       H  0.86589082  0.71821147  0.28728658     0.14300
H3502       H  0.91084413  0.75069081  0.21957467     0.14200
H3503       H  0.91120575  0.74488496  0.28848249     0.32300
H3504       H  0.86556826  0.72386960  0.21932229     0.35100
C3505       C  0.71299209  0.91474364  0.12347145     0.20700
C3506       C  0.69697034  0.92042991  0.12099887    -0.39200
C3507       C  0.69382853  0.92728467  0.10563287     0.19700
C3508       C  0.70570169  0.92840726  0.09355785     0.22300
C3509       C  0.72180842  0.92262441  0.09599438    -0.39700
C3510       C  0.72500091  0.91576432  0.11148409     0.21100
N3511       N  0.71865679  0.90695523  0.13674185    -0.33000
C3512       C  0.73440963  0.90284666  0.13334297    -0.10500
C3513       C  0.73889569  0.90822031  0.11768537    -0.29300
N3514       N  0.69936746  0.93514399  0.07992517    -0.45900
C3515       C  0.68331043  0.93825823  0.08337278    -0.05200
C3516       C  0.67950215  0.93351693  0.09934948    -0.22600
H3517       H  0.68753605  0.91934207  0.13030143     0.19200
H3518       H  0.73107010  0.92319745  0.08647734     0.18000
H3519       H  0.75037706  0.90603973  0.11135075     0.14300
H3520       H  0.66785548  0.93442513  0.10566891     0.14200
H3521       H  0.71193321  0.90392402  0.14722777     0.32300
H3522       H  0.70558541  0.93719182  0.06891630     0.35100
C3523       C  0.82619337  0.83525710  0.15960405     0.20700
C3524       C  0.83879741  0.82786431  0.16868681    -0.39200
C3525       C  0.84699895  0.81481111  0.16099596     0.19700
C3526       C  0.84281937  0.80939742  0.14548372     0.22300
C3527       C  0.83018024  0.81676837  0.13640264    -0.39700
C3528       C  0.82208201  0.82991982  0.14404471     0.21100
N3529       N  0.81558669  0.84676677  0.16482695    -0.33000
C3530       C  0.80454079  0.84872772  0.15258808    -0.10500
C3531       C  0.80828372  0.83850950  0.13935573    -0.29300
N3532       N  0.85109945  0.79564432  0.14170432    -0.45900
C3533       C  0.86059611  0.79218729  0.15489897    -0.05200
C3534       C  0.85850351  0.80401842  0.16709591    -0.22600
H3535       H  0.84154044  0.83154629  0.18112661     0.19200
H3536       H  0.82642674  0.81212481  0.12456075     0.18000
H3537       H  0.80109873  0.83663969  0.12837221     0.14300
H3538       H  0.86353675  0.80388697  0.17935057     0.14200
H3539       H  0.81516598  0.85206374  0.17647793     0.32300
H3540       H  0.84949158  0.78839734  0.13127304     0.35100
C3541       C  0.78934601  0.91650061  0.38776774     0.20700
C3542       C  0.79060881  0.92441471  0.40308265    -0.39200
C3543       C  0.80649820  0.92950050  0.40767463     0.19700
C3544       C  0.82003350  0.92682682  0.39778878     0.22300
C3545       C  0.81878746  0.91894732  0.38253567    -0.39700
C3546       C  0.80295985  0.91393894  0.37792508     0.21100
N3547       N  0.77587186  0.90966735  0.38097550    -0.33000
C3548       C  0.78098584  0.90264856  0.36675080    -0.10500
C3549       C  0.79779352  0.90517988  0.36442771    -0.29300
N3550       N  0.83378613  0.93242297  0.40496891    -0.45900
C3551       C  0.82914918  0.93882429  0.41964151    -0.05200
C3552       C  0.81211745  0.93720017  0.42171832    -0.22600
H3553       H  0.78005272  0.92624649  0.41095204     0.19200
H3554       H  0.82943577  0.91663259  0.37491937     0.18000
H3555       H  0.80539177  0.90045851  0.35460556     0.14300
H3556       H  0.80478747  0.94096815  0.43212620     0.14200
H3557       H  0.76410703  0.90911944  0.38607601     0.32300
H3558       H  0.84557657  0.93179588  0.39999624     0.35100
C3559       C  0.80494514  0.81195406  0.33273290     0.20700
C3560       C  0.81559562  0.80224579  0.32335452    -0.39200
C3561       C  0.82541005  0.79138963  0.33224055     0.19700
C3562       C  0.82465577  0.79029224  0.34915977     0.22300
C3563       C  0.81398841  0.79997063  0.35852633    -0.39700
C3564       C  0.80417059  0.81081785  0.34964636     0.21100
N3565       N  0.79464345  0.82349813  0.32727088    -0.33000
C3566       C  0.78727094  0.82969873  0.34081039    -0.10500
C3567       C  0.79285124  0.82210685  0.35499553    -0.29300
N3568       N  0.83554067  0.77935600  0.35471783    -0.45900
C3569       C  0.84328069  0.77351787  0.34123909    -0.05200
C3570       C  0.83730051  0.78065758  0.32697984    -0.22600
H3571       H  0.81632606  0.80321404  0.31014999     0.19200
H3572       H  0.81350177  0.79923686  0.37175652     0.18000
H3573       H  0.78930606  0.82470025  0.36752202     0.14300
H3574       H  0.84130753  0.77847976  0.31451103     0.14200
H3575       H  0.79286644  0.82706747  0.31512541     0.32300
H3576       H  0.83775501  0.77624546  0.36691805     0.35100
C3577       C  0.75043953  0.88410305  0.26557433     0.20700
C3578       C  0.75721557  0.89171975  0.25163382    -0.39200
C3579       C  0.75329464  0.88454560  0.23645204     0.19700
C3580       C  0.74323321  0.87093063  0.23532447     0.22300
C3581       C  0.73651655  0.86328787  0.24921710    -0.39700
C3582       C  0.74058226  0.87034261  0.26436586     0.21100
N3583       N  0.75346606  0.88768258  0.28139874    -0.33000
C3584       C  0.74574452  0.87597333  0.29033305    -0.10500
C3585       C  0.73745231  0.86501354  0.28011509    -0.29300
N3586       N  0.74193597  0.86596968  0.21969403    -0.45900
C3587       C  0.75131143  0.87634574  0.21069381    -0.05200
C3588       C  0.75861329  0.88817213  0.22071247    -0.22600
H3589       H  0.76539351  0.90212862  0.25258440     0.19200
H3590       H  0.72913548  0.85229563  0.24831871     0.18000
H3591       H  0.73085808  0.85406965  0.28368556     0.14300
H3592       H  0.76700426  0.89778714  0.21706036     0.14200
H3593       H  0.76116727  0.89691472  0.28581737     0.32300
H3594       H  0.73543063  0.85578968  0.21544227     0.35100
C3595       C  0.79635680  0.68192701  0.14910933     0.20700
C3596       C  0.80984625  0.68841798  0.14060976    -0.39200
C3597       C  0.81772457  0.70166020  0.14816134     0.19700
C3598       C  0.81250350  0.70801748  0.16302527     0.22300
C3599       C  0.79896276  0.70156488  0.17150782    -0.39700
C3600       C  0.79113311  0.68824302  0.16399242     0.21100
N3601       N  0.78804140  0.66823575  0.14540969    -0.33000
C3602       C  0.77760831  0.66568909  0.15810070    -0.10500
C3603       C  0.77900912  0.67800379  0.16985288    -0.29300
N3604       N  0.82302187  0.71948820  0.16838173    -0.45900
C3605       C  0.83506729  0.72028999  0.15692715    -0.05200
C3606       C  0.83212900  0.70949528  0.14404845    -0.22600
H3607       H  0.81438356  0.68301763  0.12936087     0.19200
H3608       H  0.79532445  0.70604122  0.18346478     0.18000
H3609       H  0.77288575  0.67868563  0.18161947     0.14300
H3610       H  0.84001297  0.70696568  0.13365498     0.14200
H3611       H  0.79011891  0.66049904  0.13541654     0.32300
H3612       H  0.82254821  0.72569204  0.17957552     0.35100
C3613       C  0.71355856  0.57506764  0.37796112     0.20700
C3614       C  0.69786072  0.56811656  0.37964861    -0.39200
C3615       C  0.69391414  0.56214299  0.39526655     0.19700
C3616       C  0.70483491  0.56288718  0.40818919     0.22300
C3617       C  0.72057620  0.56983557  0.40649921    -0.39700
C3618       C  0.72451443  0.57591187  0.39086685     0.21100
N3619       N  0.71963137  0.58278153  0.36475797    -0.33000
C3620       C  0.73455445  0.58866740  0.36918335    -0.10500
C3621       C  0.73812387  0.58451929  0.38538159    -0.29300
N3622       N  0.69784241  0.55705425  0.42194307    -0.45900
C3623       C  0.68226894  0.55274556  0.41782467    -0.05200
C3624       C  0.67943033  0.55566317  0.40122148    -0.22600
H3625       H  0.68915060  0.56787845  0.36966045     0.19200
H3626       H  0.72894526  0.57087226  0.41672532     0.18000
H3627       H  0.74868981  0.58824566  0.39249309     0.14300
H3628       H  0.66824894  0.55354104  0.39440879     0.14200
H3629       H  0.71362510  0.58463786  0.35362658     0.32300
H3630       H  0.70321490  0.55657096  0.43353007     0.35100
C3631       C  0.82602732  0.65456222  0.35675014     0.20700
C3632       C  0.84170673  0.65912006  0.35105735    -0.39200
C3633       C  0.84802666  0.67389365  0.35730466     0.19700
C3634       C  0.83929917  0.68345367  0.36829635     0.22300
C3635       C  0.82367083  0.67890270  0.37399027    -0.39700
C3636       C  0.81740936  0.66413543  0.36780928     0.21100
N3637       N  0.81653981  0.64220709  0.35120954    -0.33000
C3638       C  0.80173153  0.64407308  0.35864251    -0.10500
C3639       C  0.80190045  0.65752003  0.36919973    -0.29300
N3640       N  0.84671835  0.69799977  0.37043730    -0.45900
C3641       C  0.86019900  0.69784449  0.36065360    -0.05200
C3642       C  0.86161206  0.68287426  0.35251074    -0.22600
H3643       H  0.84809890  0.65217178  0.34172305     0.19200
H3644       H  0.81647539  0.68679504  0.38187652     0.18000
H3645       H  0.79160902  0.66261287  0.37588736     0.14300
H3646       H  0.87024863  0.67976851  0.34290002     0.14200
H3647       H  0.81949731  0.63388539  0.34193707     0.32300
H3648       H  0.84205506  0.70798981  0.37694459     0.35100
C3649       C  0.75876950  0.60164281  0.26799057     0.20700
C3650       C  0.75032544  0.59561789  0.25414041    -0.39200
C3651       C  0.75655426  0.60052644  0.23876599     0.19700
C3652       C  0.77015891  0.61061903  0.23745433     0.22300
C3653       C  0.77858190  0.61654031  0.25121092    -0.39700
C3654       C  0.77236287  0.61171197  0.26646676     0.21100
N3655       N  0.75442915  0.60020664  0.28388967    -0.33000
C3656       C  0.76523053  0.60958529  0.29244829    -0.10500
C3657       C  0.77667343  0.61680181  0.28197804    -0.29300
N3658       N  0.77273368  0.61496326  0.22182072    -0.45900
C3659       C  0.76068869  0.60778713  0.21291105    -0.05200
C3660       C  0.75041676  0.59843009  0.22302017    -0.22600
H3661       H  0.73929615  0.58829279  0.25526621     0.19200
H3662       H  0.78878949  0.62497350  0.25011484     0.18000
H3663       H  0.78619304  0.62548935  0.28518027     0.14300
H3664       H  0.73932108  0.59201949  0.21953097     0.14200
H3665       H  0.74415643  0.59408203  0.28852858     0.32300
H3666       H  0.78165361  0.62313397  0.21757189     0.35100
C3667       C  0.59052921  0.70280448  0.37839608     0.20700
C3668       C  0.58706350  0.68637616  0.38200559    -0.39200
C3669       C  0.57728374  0.68366499  0.39590991     0.19700
C3670       C  0.57142034  0.69631158  0.40553068     0.22300
C3671       C  0.57495863  0.71278483  0.40195583    -0.39700
C3672       C  0.58473950  0.71552995  0.38799924     0.21100
N3673       N  0.60005821  0.70850792  0.36622501    -0.33000
C3674       C  0.60047770  0.72499349  0.36807619    -0.10500
C3675       C  0.59100250  0.72987101  0.38149847    -0.29300
N3676       N  0.56253646  0.69042345  0.41815675    -0.45900
C3677       C  0.56273748  0.67385819  0.41659334    -0.05200
C3678       C  0.57186577  0.66926598  0.40279695    -0.22600
H3679       H  0.59177306  0.67641874  0.37461322     0.19200
H3680       H  0.57057137  0.72271485  0.40957432     0.18000
H3681       H  0.58948895  0.74214160  0.38626065     0.14300
H3682       H  0.57441799  0.65707767  0.39832219     0.14200
H3683       H  0.60641978  0.70154506  0.35754795     0.32300
H3684       H  0.55670377  0.69734518  0.42721070     0.35100
C3685       C  0.69223178  0.70517355  0.33443662     0.20700
C3686       C  0.70177841  0.69482042  0.32456638    -0.39200
C3687       C  0.71143854  0.68343521  0.33294602     0.19700
C3688       C  0.71155367  0.68242965  0.34987623     0.22300
C3689       C  0.70211839  0.69289457  0.35976878    -0.39700
C3690       C  0.69245810  0.70430619  0.35137728     0.21100
N3691       N  0.68119493  0.71621752  0.32938950    -0.33000
C3692       C  0.67430882  0.72240125  0.34318578    -0.10500
C3693       C  0.68111124  0.71541570  0.35717516    -0.29300
N3694       N  0.72122658  0.67011998  0.35481612    -0.45900
C3695       C  0.72734162  0.66331257  0.34093498    -0.05200
C3696       C  0.72157481  0.67129513  0.32704173    -0.22600
H3697       H  0.70139720  0.69532437  0.31132434     0.19200
H3698       H  0.70199287  0.69194420  0.37299197     0.18000
H3699       H  0.67763024  0.71756788  0.36980229     0.14300
H3700       H  0.72420880  0.66840990  0.31435857     0.14200
H3701       H  0.67809189  0.71894197  0.31729172     0.32300
H3702       H  0.72342973  0.66647832  0.36686890     0.35100
C3703       C  0.67135678  0.81289679  0.36830541     0.20700
C3704       C  0.68662983  0.81762312  0.37471480    -0.39200
C3705       C  0.69350832  0.83196000  0.36821267     0.19700
C3706       C  0.68568607  0.84109057  0.35631177     0.22300
C3707       C  0.67033913  0.83637024  0.34990552    -0.39700
C3708       C  0.66350716  0.82188072  0.35630493     0.21100
N3709       N  0.66390593  0.79837363  0.37042608    -0.33000
C3710       C  0.65141812  0.79779418  0.35949764    -0.10500
C3711       C  0.65053001  0.81242762  0.35069982    -0.29300
N3712       N  0.69583813  0.85275639  0.35045103    -0.45900
C3713       C  0.71031790  0.85079341  0.35839735    -0.05200
C3714       C  0.70921839  0.83809448  0.36974655    -0.22600
H3715       H  0.69328029  0.80997695  0.38322177     0.19200
H3716       H  0.66474008  0.84281349  0.33979648     0.18000
H3717       H  0.64282095  0.81495163  0.34023090     0.14300
H3718       H  0.71909868  0.83294226  0.37690764     0.14200
H3719       H  0.66817615  0.78872380  0.37761153     0.32300
H3720       H  0.69360331  0.86046040  0.34051452     0.35100
C3721       C  0.58574234  0.77762491  0.11765681     0.20700
C3722       C  0.57794863  0.77912948  0.10233889    -0.39200
C3723       C  0.57196397  0.79481449  0.09845362     0.19700
C3724       C  0.57368052  0.80796417  0.10898455     0.22300
C3725       C  0.58142841  0.80647452  0.12425468    -0.39700
C3726       C  0.58733651  0.79083849  0.12815863     0.21100
N3727       N  0.59339313  0.76436257  0.12383462    -0.33000
C3728       C  0.59995628  0.76923430  0.13833493    -0.10500
C3729       C  0.59630556  0.78563442  0.14144352    -0.29300
N3730       N  0.56754632  0.82166470  0.10227901    -0.45900
C3731       C  0.56181694  0.81736685  0.08725584    -0.05200
C3732       C  0.56432871  0.80061299  0.08451028    -0.22600
H3733       H  0.57691562  0.76893227  0.09392511     0.19200
H3734       H  0.58305965  0.81683642  0.13237036     0.18000
H3735       H  0.60046416  0.79302297  0.15164630     0.14300
H3736       H  0.56135118  0.79361657  0.07365379     0.14200
H3737       H  0.59476770  0.75297559  0.11817310     0.32300
H3738       H  0.56747706  0.83322811  0.10770888     0.35100
C3739       C  0.66880565  0.67852639  0.14851368     0.20700
C3740       C  0.68101529  0.67054448  0.13932983    -0.39200
C3741       C  0.68875652  0.65730387  0.14700609     0.19700
C3742       C  0.68466618  0.65236093  0.16270322     0.22300
C3743       C  0.67240211  0.66035019  0.17190679    -0.39700
C3744       C  0.66462681  0.67362360  0.16419937     0.21100
N3745       N  0.66114200  0.69253799  0.14463433    -0.33000
C3746       C  0.65206126  0.69677564  0.15792084    -0.10500
C3747       C  0.65377862  0.68515331  0.17035260    -0.29300
N3748       N  0.69536438  0.64103528  0.16806815    -0.45900
C3749       C  0.70649477  0.63894560  0.15583095    -0.05200
C3750       C  0.70257414  0.64868662  0.14238141    -0.22600
H3751       H  0.68488124  0.67493975  0.12742672     0.19200
H3752       H  0.66977882  0.65707323  0.18448583     0.18000
H3753       H  0.64890127  0.68579657  0.18268435     0.14300
H3754       H  0.70985620  0.65053802  0.13142456     0.14200
H3755       H  0.66292333  0.69943853  0.13401753     0.32300
H3756       H  0.69596662  0.63620465  0.17988788     0.35100
C3757       C  0.69430164  0.78736274  0.14359506     0.20700
C3758       C  0.69973807  0.80172997  0.13594623    -0.39200
C3759       C  0.71410899  0.80863181  0.14234814     0.19700
C3760       C  0.72250762  0.80166577  0.15531007     0.22300
C3761       C  0.71718196  0.78720130  0.16283136    -0.39700
C3762       C  0.70271626  0.78039480  0.15654515     0.21100
N3763       N  0.67979689  0.77987270  0.14138709    -0.33000
C3764       C  0.67886985  0.76828885  0.15318719    -0.10500
C3765       C  0.69302457  0.76803981  0.16271006    -0.29300
N3766       N  0.73444777  0.81168867  0.16056961    -0.45900
C3767       C  0.73349285  0.82516178  0.15101687    -0.05200
C3768       C  0.72116519  0.82363483  0.13933304    -0.22600
H3769       H  0.69268912  0.80769542  0.12646533     0.19200
H3770       H  0.72321171  0.78225549  0.17352688     0.18000
H3771       H  0.69527667  0.76078506  0.17354770     0.14300
H3772       H  0.71702851  0.83282404  0.13076401     0.14200
H3773       H  0.67055324  0.78329923  0.13324578     0.32300
H3774       H  0.74199862  0.80997349  0.17074444     0.35100
C3775       C  0.63006085  0.76179419  0.23847902     0.20700
C3776       C  0.63674051  0.76937555  0.25236027    -0.39200
C3777       C  0.62971346  0.76494820  0.26738962     0.19700
C3778       C  0.61688555  0.75387453  0.26860304     0.22300
C3779       C  0.61021603  0.74619771  0.25464786    -0.39700
C3780       C  0.61733298  0.75058827  0.23953114     0.21100
N3781       N  0.63536769  0.76322477  0.22296467    -0.33000
C3782       C  0.62607966  0.75280423  0.21396312    -0.10500
C3783       C  0.61459866  0.74473774  0.22383615    -0.29300
N3784       N  0.61334729  0.75082764  0.28446121    -0.45900
C3785       C  0.62422048  0.75983439  0.29328745    -0.05200
C3786       C  0.63449772  0.76885919  0.28304966    -0.22600
H3787       H  0.64707944  0.77768292  0.25156586     0.19200
H3788       H  0.60059345  0.73708836  0.25553800     0.18000
H3789       H  0.60589417  0.73542447  0.22014046     0.14300
H3790       H  0.64480435  0.77645052  0.28659603     0.14200
H3791       H  0.64511124  0.77046627  0.21882668     0.32300
H3792       H  0.60489823  0.74230853  0.28896613     0.35100
C3793       C  0.22264113  0.41369862  0.89149696     0.20700
C3794       C  0.21968444  0.41904573  0.90765646    -0.39200
C3795       C  0.20444379  0.42668567  0.91049242     0.19700
C3796       C  0.19303507  0.42886214  0.89817864     0.22300
C3797       C  0.19601853  0.42360783  0.88202705    -0.39700
C3798       C  0.21119539  0.41589901  0.87920730     0.21100
N3799       N  0.23569415  0.40521400  0.88584466    -0.33000
C3800       C  0.23248862  0.40186043  0.86986555    -0.10500
C3801       C  0.21733387  0.40840250  0.86530826    -0.29300
N3802       N  0.17927535  0.43587030  0.90410710    -0.45900
C3803       C  0.18184842  0.43824930  0.92036705    -0.05200
C3804       C  0.19749673  0.43270271  0.92475554    -0.22600
H3805       H  0.22844594  0.41706815  0.91739277     0.19200
H3806       H  0.18698931  0.42502705  0.87243541     0.18000
H3807       H  0.21129270  0.40721290  0.85357186     0.14300
H3808       H  0.20296249  0.43273677  0.93682074     0.14200
H3809       H  0.24581360  0.40131788  0.89261859     0.32300
H3810       H  0.16880698  0.43888424  0.89741802     0.35100
C3811       C  0.10829909  0.56163276  0.81590799     0.20700
C3812       C  0.12442353  0.56729441  0.81355066    -0.39200
C3813       C  0.12763566  0.57486299  0.79844942     0.19700
C3814       C  0.11574237  0.57656958  0.78650229     0.22300
C3815       C  0.09957923  0.57087954  0.78887275    -0.39700
C3816       C  0.09634273  0.56335112  0.80404148     0.21100
N3817       N  0.10200615  0.55479425  0.82952187    -0.33000
C3818       C  0.08584907  0.55215450  0.82644624    -0.10500
C3819       C  0.08190430  0.55722238  0.81056551    -0.29300
N3820       N  0.12172508  0.58497106  0.77358450    -0.45900
C3821       C  0.13748903  0.58876156  0.77741830    -0.05200
C3822       C  0.14159283  0.58262313  0.79282001    -0.22600
H3823       H  0.13368431  0.56628339  0.82297620     0.19200
H3824       H  0.09012445  0.57253604  0.77974024     0.18000
H3825       H  0.06998328  0.55697755  0.80475259     0.14300
H3826       H  0.15304832  0.58423918  0.79932306     0.14200
H3827       H  0.10839628  0.55220612  0.84027253     0.32300
H3828       H  0.11526698  0.58857894  0.76316818     0.35100
C3829       C  0.10977297  0.51104795  0.88597714     0.20700
C3830       C  0.12206583  0.51139786  0.89799800    -0.39200
C3831       C  0.12783323  0.49607337  0.90320329     0.19700
C3832       C  0.12192594  0.48148515  0.89690223     0.22300
C3833       C  0.10968362  0.48114137  0.88484017    -0.39700
C3834       C  0.10384958  0.49644895  0.87970901     0.21100
N3835       N  0.10130083  0.52383302  0.87995931    -0.33000
C3836       C  0.08973600  0.51727423  0.86996497    -0.10500
C3837       C  0.09112850  0.50024479  0.86938145    -0.29300
N3838       N  0.12851731  0.46861796  0.90479432    -0.45900
C3839       C  0.13856993  0.47505656  0.91637095    -0.05200
C3840       C  0.13855959  0.49216013  0.91556349    -0.22600
H3841       H  0.12637088  0.52273312  0.90337081     0.19200
H3842       H  0.10460337  0.46978248  0.88024921     0.18000
H3843       H  0.08345945  0.49167065  0.86277596     0.14300
H3844       H  0.14500557  0.50069709  0.92339935     0.14200
H3845       H  0.10272661  0.53613121  0.88315721     0.32300
H3846       H  0.12563022  0.45629229  0.90300000     0.35100
C3847       C  0.06933097  0.29814518  0.90737751     0.20700
C3848       C  0.07372094  0.28183193  0.90407707    -0.39200
C3849       C  0.08386751  0.27937268  0.89034382     0.19700
C3850       C  0.08922321  0.29222039  0.88068068     0.22300
C3851       C  0.08490917  0.30852136  0.88401903    -0.39700
C3852       C  0.07473506  0.31094606  0.89771564     0.21100
N3853       N  0.06013640  0.30373512  0.91990788    -0.33000
C3854       C  0.05970104  0.32027885  0.91831851    -0.10500
C3855       C  0.06865222  0.32516074  0.90449626    -0.29300
N3856       N  0.09882812  0.28672907  0.86845873    -0.45900
C3857       C  0.09961629  0.27025551  0.87028304    -0.05200
C3858       C  0.09050039  0.26519233  0.88386328    -0.22600
H3859       H  0.06962409  0.27180339  0.91170754     0.19200
H3860       H  0.08923308  0.31858494  0.87655371     0.18000
H3861       H  0.07087769  0.33743216  0.90009701     0.14300
H3862       H  0.08908240  0.25286476  0.88846786     0.14200
H3863       H  0.05474103  0.29663411  0.92907758     0.32300
H3864       H  0.10469740  0.29379407  0.85953235     0.35100
C3865       C  0.09104634  0.38707391  0.93437824     0.20700
C3866       C  0.09973559  0.39878757  0.92513227    -0.39200
C3867       C  0.11158511  0.40797567  0.93371645     0.19700
C3868       C  0.11450882  0.40565157  0.95022310     0.22300
C3869       C  0.10591011  0.39390263  0.95942109    -0.39700
C3870       C  0.09408242  0.38477655  0.95086308     0.21100
N3871       N  0.07862406  0.37736978  0.92935150    -0.33000
C3872       C  0.07359123  0.36891254  0.94278787    -0.10500
C3873       C  0.08312322  0.37316863  0.95638655    -0.29300
N3874       N  0.12590171  0.41626454  0.95569329    -0.45900
C3875       C  0.13040335  0.42551781  0.94260803    -0.05200
C3876       C  0.12173178  0.42060638  0.92864036    -0.22600
H3877       H  0.09724212  0.40081431  0.91228174     0.19200
H3878       H  0.10801992  0.39223653  0.97239578     0.18000
H3879       H  0.08202022  0.36871415  0.96880750     0.14300
H3880       H  0.12238843  0.42582034  0.91648922     0.14200
H3881       H  0.07354999  0.37703866  0.91762720     0.32300
H3882       H  0.13027148  0.41710275  0.96767650     0.35100
C3883       C  0.99650064  0.48191144  0.83637789     0.20700
C3884       C  0.01067248  0.48815056  0.82857332    -0.39200
C3885       C  0.01793386  0.50197629  0.83601902     0.19700
C3886       C  0.01170396  0.50873532  0.85026560     0.22300
C3887       C  0.99781194  0.50236903  0.85813687    -0.39700
C3888       C  0.99038498  0.48891615  0.85053513     0.21100
N3889       N  0.98803326  0.46816681  0.83271250    -0.33000
C3890       C  0.97630105  0.46654469  0.84453157    -0.10500
C3891       C  0.97762626  0.47931997  0.85587148    -0.29300
N3892       N  0.02146583  0.52074962  0.85580937    -0.45900
C3893       C  0.03409764  0.52202599  0.84500654    -0.05200
C3894       C  0.03234926  0.51031879  0.83253171    -0.22600
H3895       H  0.01591899  0.48240531  0.81781575     0.19200
H3896       H  0.99334995  0.50728097  0.86963814     0.18000
H3897       H  0.97126999  0.48063578  0.86744566     0.14300
H3898       H  0.04109874  0.50746917  0.82294721     0.14200
H3899       H  0.99083569  0.45975625  0.82347489     0.32300
H3900       H  0.02015804  0.52678036  0.86702080     0.35100
C3901       C  0.98734913  0.39256366  0.88659713     0.20700
C3902       C  0.98676088  0.38126341  0.89945422    -0.39200
C3903       C  0.00196074  0.37502973  0.90442476     0.19700
C3904       C  0.01663264  0.37964278  0.89718144     0.22300
C3905       C  0.01722010  0.39098819  0.88434351    -0.39700
C3906       C  0.00202383  0.39726367  0.87939419     0.21100
N3907       N  0.97473159  0.40096622  0.88027411    -0.33000
C3908       C  0.98146581  0.41123958  0.86912460    -0.10500
C3909       C  0.99844415  0.40919551  0.86815126    -0.29300
N3910       N  0.02942502  0.37262592  0.90478446    -0.45900
C3911       C  0.02283981  0.36360049  0.91708523    -0.05200
C3912       C  0.00570843  0.36470427  0.91708746    -0.22600
H3913       H  0.97536757  0.37790936  0.90544041     0.19200
H3914       H  0.02868745  0.39498359  0.87892476     0.18000
H3915       H  0.00708674  0.41592472  0.86064163     0.14300
H3916       H  0.99707038  0.35910230  0.92546839     0.14200
H3917       H  0.96245996  0.40033490  0.88394965     0.32300
H3918       H  0.04184102  0.37448512  0.90216352     0.35100
C3919       C  0.89418622  0.27463311  0.08401430     0.20700
C3920       C  0.91051268  0.27767303  0.07914913    -0.39200
C3921       C  0.91345656  0.29286105  0.07155564     0.19700
C3922       C  0.90109739  0.30416622  0.06910939     0.22300
C3923       C  0.88478422  0.30106588  0.07379269    -0.39700
C3924       C  0.88183709  0.28590511  0.08130448     0.21100
N3925       N  0.88847122  0.26189517  0.09284888    -0.33000
C3926       C  0.87241350  0.26518377  0.09586561    -0.10500
C3927       C  0.86781937  0.27993917  0.08866111    -0.29300
N3928       N  0.90714109  0.31799078  0.06248075    -0.45900
C3929       C  0.92350742  0.31555214  0.06053273    -0.05200
C3930       C  0.92787563  0.29992532  0.06598660    -0.22600
H3931       H  0.92029193  0.26906970  0.08154838     0.19200
H3932       H  0.87517448  0.31004490  0.07220759     0.18000
H3933       H  0.85610962  0.28609083  0.08975547     0.14300
H3934       H  0.94002102  0.29459571  0.06623987     0.14200
H3935       H  0.89531166  0.25214945  0.09745897     0.32300
H3936       H  0.90045236  0.32842379  0.05942161     0.35100
C3937       C  0.98852120  0.32713537  0.00816771     0.20700
C3938       C  0.99301503  0.32123555  0.99260383    -0.39200
C3939       C  0.00807817  0.32691771  0.98638463     0.19700
C3940       C  0.01788274  0.33773830  0.99498070     0.22300
C3941       C  0.01332962  0.34373841  0.01050686    -0.39700
C3942       C  0.99829302  0.33798483  0.01676259     0.21100
N3943       N  0.97404306  0.32499574  0.01583573    -0.33000
C3944       C  0.97432642  0.33471414  0.02934046    -0.10500
C3945       C  0.98947535  0.34285484  0.03040276    -0.29300
N3946       N  0.03053351  0.34283037  0.98564759    -0.45900
C3947       C  0.02874849  0.33537732  0.97082814    -0.05200
C3948       C  0.01494297  0.32515855  0.97100166    -0.22600
H3949       H  0.98496879  0.31343491  0.98549725     0.19200
H3950       H  0.02056231  0.35286298  0.01687529     0.18000
H3951       H  0.99310971  0.35227605  0.03897203     0.14300
H3952       H  0.00973230  0.31862052  0.96070382     0.14200
H3953       H  0.96399429  0.31837241  0.01142708     0.32300
H3954       H  0.03887707  0.35195156  0.98891661     0.35100
C3955       C  0.89470365  0.42673947  0.91709171     0.20700
C3956       C  0.90702689  0.41808779  0.90859306    -0.39200
C3957       C  0.91605396  0.42712241  0.89695029     0.19700
C3958       C  0.91311672  0.44352482  0.89412488     0.22300
C3959       C  0.90082906  0.45214738  0.90258792    -0.39700
C3960       C  0.89177047  0.44311310  0.91412037     0.21100
N3961       N  0.88480683  0.42117597  0.92915487    -0.33000
C3962       C  0.87559463  0.43416431  0.93404513    -0.10500
C3963       C  0.87954341  0.44799651  0.92473417    -0.29300
N3964       N  0.92332481  0.44936873  0.88253467    -0.45900
C3965       C  0.93282076  0.43658535  0.87770319    -0.05200
C3966       C  0.92863724  0.42249496  0.88651632    -0.22600
H3967       H  0.90945604  0.40529170  0.91091587     0.19200
H3968       H  0.89856740  0.46500762  0.90044284     0.18000
H3969       H  0.87450709  0.46018458  0.92580032     0.14300
H3970       H  0.93405838  0.41047377  0.88554027     0.14200
H3971       H  0.88483687  0.40942922  0.93414572     0.32300
H3972       H  0.92356480  0.46131981  0.87805357     0.35100
C3973       C  0.88744480  0.38808940  0.99057751     0.20700
C3974       C  0.89937881  0.37577068  0.99003053    -0.39200
C3975       C  0.90504071  0.37025233  0.00526392     0.19700
C3976       C  0.89929223  0.37643699  0.01998972     0.22300
C3977       C  0.88733553  0.38877829  0.02054328    -0.39700
C3978       C  0.88169850  0.39433622  0.00527705     0.21100
N3979       N  0.88074709  0.39600265  0.97779104    -0.33000
C3980       C  0.87074485  0.40751084  0.98438137    -0.10500
C3981       C  0.87096264  0.40671993  0.00151459    -0.29300
N3982       N  0.90752237  0.36989336  0.03268418    -0.45900
C3983       C  0.91874963  0.35964791  0.02592974    -0.05200
C3984       C  0.91736773  0.35943492  0.00886786    -0.22600
H3985       H  0.90426594  0.37115726  0.97857889     0.19200
H3986       H  0.88309003  0.39401051  0.03198276     0.18000
H3987       H  0.86443088  0.41438761  0.01015123     0.14300
H3988       H  0.92483806  0.35277910  0.00014464     0.14200
H3989       H  0.88334539  0.39409676  0.96540020     0.32300
H3990       H  0.90621644  0.37292550  0.04505487     0.35100
C3991       C  0.19427569  0.60073104  0.06673936     0.20700
C3992       C  0.19587978  0.61681776  0.07260081    -0.39200
C3993       C  0.21146735  0.62122151  0.07845656     0.19700
C3994       C  0.22458097  0.61048363  0.07838877     0.22300
C3995       C  0.22299774  0.59438672  0.07234505    -0.39700
C3996       C  0.20730889  0.58992973  0.06657931     0.21100
N3997       N  0.18046380  0.59337711  0.06149541    -0.33000
C3998       C  0.18455217  0.57766341  0.05792388    -0.10500
C3999       C  0.20129885  0.57510871  0.06088569    -0.29300
N4000       N  0.23756050  0.61710779  0.08625922    -0.45900
C4001       C  0.23256129  0.63206215  0.09154738    -0.05200
C4002       C  0.21643925  0.63509977  0.08668840    -0.22600
H4003       H  0.18553979  0.62509502  0.07321453     0.19200
H4004       H  0.23305307  0.58576445  0.07271729     0.18000
H4005       H  0.20810530  0.56384077  0.05948334     0.14300
H4006       H  0.20891721  0.64552698  0.08991853     0.14200
H4007       H  0.16896298  0.59887832  0.06048675     0.32300
H4008       H  0.24867700  0.61135422  0.08890610     0.35100
C4009       C  0.17474270  0.51010010  0.00806088     0.20700
C4010       C  0.18036489  0.50525827  0.99245679    -0.39200
C4011       C  0.17430553  0.49021711  0.98655151     0.19700
C4012       C  0.16343268  0.48072733  0.99547047     0.22300
C4013       C  0.15793160  0.48551653  0.01110511    -0.39700
C4014       C  0.16401258  0.50051704  0.01702856     0.21100
N4015       N  0.17678283  0.52479276  0.01532901    -0.33000
C4016       C  0.16717024  0.52475246  0.02898683    -0.10500
C4017       C  0.15922921  0.50958997  0.03049924    -0.29300
N4018       N  0.15773722  0.46818273  0.98633975    -0.45900
C4019       C  0.16487390  0.46971842  0.97133715    -0.05200
C4020       C  0.17553292  0.48319229  0.97119873    -0.22600
H4021       H  0.18808597  0.51309877  0.98502897     0.19200
H4022       H  0.14877437  0.47855911  0.01775438     0.18000
H4023       H  0.14980015  0.50613620  0.03917222     0.14300
H4024       H  0.18208186  0.48807040  0.96073112     0.14200
H4025       H  0.18317680  0.53479287  0.01052800     0.32300
H4026       H  0.14857156  0.45997433  0.98986614     0.35100
C4027       C  0.11204061  0.68315271  0.93764656     0.20700
C4028       C  0.12783640  0.68534016  0.93100337    -0.39200
C4029       C  0.13122507  0.70093337  0.92457967     0.19700
C4030       C  0.11977771  0.71342480  0.92475508     0.22300
C4031       C  0.10399806  0.71122618  0.93144455    -0.39700
C4032       C  0.10061028  0.69562860  0.93787916     0.21100
N4033       N  0.10563288  0.66935759  0.94402099    -0.33000
C4034       C  0.08995097  0.67300352  0.94841635    -0.10500
C4035       C  0.08643903  0.68935073  0.94476835    -0.29300
N4036       N  0.12558666  0.72668792  0.91681956    -0.45900
C4037       C  0.14078829  0.72256148  0.91142019    -0.05200
C4038       C  0.14477175  0.70664633  0.91617279    -0.22600
H4039       H  0.13669885  0.67550235  0.93049898     0.19200
H4040       H  0.09489046  0.72084464  0.93131529     0.18000
H4041       H  0.07497456  0.69576327  0.94660274     0.14300
H4042       H  0.15571141  0.69982281  0.91301037     0.14200
H4043       H  0.11169150  0.65819898  0.94530174     0.32300
H4044       H  0.11925339  0.73751445  0.91442182     0.35100
C4045       C  0.05691053  0.60649543  0.91559713     0.20700
C4046       C  0.04693361  0.59720180  0.90508582    -0.39200
C4047       C  0.05516201  0.58615910  0.89476882     0.19700
C4048       C  0.07203744  0.58446006  0.89489122     0.22300
C4049       C  0.08204226  0.59380133  0.90542833    -0.39700
C4050       C  0.07379715  0.60490306  0.91576781     0.21100
N4051       N  0.05195129  0.61744509  0.92684787    -0.33000
C4052       C  0.06573737  0.62297372  0.93442481    -0.10500
C4053       C  0.07965597  0.61542975  0.92772069    -0.29300
N4054       N  0.07678230  0.57275354  0.88423754    -0.45900
C4055       C  0.06281774  0.56687098  0.87726321    -0.05200
C4056       C  0.04908875  0.57507654  0.88356462    -0.22600
H4057       H  0.03369378  0.59833163  0.90510119     0.19200
H4058       H  0.09524693  0.59238676  0.90569665     0.18000
H4059       H  0.09232754  0.61703372  0.93131752     0.14300
H4060       H  0.03629453  0.57310813  0.88063217     0.14200
H4061       H  0.03979785  0.62073208  0.92919239     0.32300
H4062       H  0.08879388  0.56880037  0.88222165     0.35100
C4063       C  0.10554117  0.61688108  0.00347981     0.20700
C4064       C  0.11054532  0.61174072  0.01909748    -0.39200
C4065       C  0.12212820  0.59907167  0.01935153     0.19700
C4066       C  0.12816391  0.59207159  0.00512153     0.22300
C4067       C  0.12320166  0.59724916  0.98951904    -0.39700
C4068       C  0.11167439  0.60994745  0.98925713     0.21100
N4069       N  0.09405508  0.62806254  0.99996931    -0.33000
C4070       C  0.09277443  0.62823121  0.98338603    -0.10500
C4071       C  0.10371429  0.61719320  0.97626107    -0.29300
N4072       N  0.13847209  0.57980084  0.00860743    -0.45900
C4073       C  0.13904212  0.57889356  0.02519400    -0.05200
C4074       C  0.12907229  0.59082902  0.03234187    -0.22600
H4075       H  0.10553451  0.61698808  0.03021828     0.19200
H4076       H  0.12773337  0.59156835  0.97840866     0.18000
H4077       H  0.10504210  0.61421776  0.96340277     0.14300
H4078       H  0.12673628  0.59285149  0.04523886     0.14200
H4079       H  0.08728257  0.63488670  0.00843456     0.32300
H4080       H  0.14463247  0.57245063  0.00012165     0.35100
C4081       C  0.92500791  0.69827091  0.12725649     0.20700
C4082       C  0.92971156  0.68200513  0.12430716    -0.39200
C4083       C  0.93742115  0.67894377  0.10922121     0.19700
C4084       C  0.94034406  0.69114188  0.09789510     0.22300
C4085       C  0.93565196  0.70750992  0.10085284    -0.39700
C4086       C  0.92782533  0.71059524  0.11599658     0.21100
N4087       N  0.91636434  0.70391640  0.14012098    -0.33000
C4088       C  0.91340295  0.71995847  0.13714849    -0.10500
C4089       C  0.92054694  0.72466025  0.12224666    -0.29300
N4090       N  0.94759085  0.68488533  0.08437974    -0.45900
C4091       C  0.94929783  0.66853528  0.08710748    -0.05200
C4092       C  0.94301960  0.66447801  0.10254021    -0.22600
H4093       H  0.92718572  0.67233094  0.13299494     0.19200
H4094       H  0.93759943  0.71704947  0.09187814     0.18000
H4095       H  0.91961344  0.73643876  0.11630000     0.14300
H4096       H  0.94256141  0.65258860  0.10829239     0.14200
H4097       H  0.91196442  0.69701689  0.14996351     0.32300
H4098       H  0.95106270  0.69142359  0.07395719     0.35100
C4099       C  0.00243424  0.66120585  0.02192628     0.20700
C4100       C  0.01791083  0.66744254  0.01743786    -0.39200
C4101       C  0.02353483  0.66320285  0.00170412     0.19700
C4102       C  0.01445648  0.65342362  0.99126415     0.22300
C4103       C  0.99895784  0.64721036  0.99575084    -0.39700
C4104       C  0.99332359  0.65146180  0.01148535     0.21100
N4105       N  0.99535927  0.66186771  0.03681678    -0.33000
C4106       C  0.98178256  0.65220741  0.03612607    -0.10500
C4107       C  0.97997171  0.64575314  0.02030006    -0.29300
N4108       N  0.02340310  0.64922760  0.97802870    -0.45900
C4109       C  0.03848466  0.65612975  0.98009293    -0.05200
C4110       C  0.03879369  0.66530324  0.99458914    -0.22600
H4111       H  0.02544004  0.67430647  0.02593747     0.19200
H4112       H  0.99222706  0.63885871  0.98794026     0.18000
H4113       H  0.97101683  0.63696120  0.01603510     0.14300
H4114       H  0.04937661  0.67116283  0.00006492     0.14200
H4115       H  0.00018943  0.66749800  0.04724991     0.32300
H4116       H  0.01968344  0.64095188  0.96903719     0.35100
C4117       C  0.07008695  0.59974725  0.19388299     0.20700
C4118       C  0.07393058  0.61632983  0.19665279    -0.39200
C4119       C  0.08149396  0.61994684  0.21172587     0.19700
C4120       C  0.08483015  0.60795835  0.22318531     0.22300
C4121       C  0.08091421  0.59142824  0.22042979    -0.39700
C4122       C  0.07342779  0.58780679  0.20536891     0.21100
N4123       N  0.06375485  0.59300042  0.18021230    -0.33000
C4124       C  0.06303927  0.57662719  0.18297105    -0.10500
C4125       C  0.06887285  0.57296842  0.19862343    -0.29300
N4126       N  0.09329952  0.61421687  0.23588074    -0.45900
C4127       C  0.09561081  0.63028099  0.23248308    -0.05200
C4128       C  0.08827842  0.63435374  0.21755478    -0.22600
H4129       H  0.07173686  0.62563297  0.18750595     0.19200
H4130       H  0.08396212  0.58198384  0.22917268     0.18000
H4131       H  0.07008577  0.56101426  0.20415201     0.14300
H4132       H  0.08885712  0.64599016  0.21127308     0.14200
H4133       H  0.06018081  0.59920058  0.16963784     0.32300
H4134       H  0.09818225  0.60771280  0.24572494     0.35100
C4135       C  0.09537922  0.56098694  0.11317823     0.20700
C4136       C  0.10370041  0.57016864  0.10116904    -0.39200
C4137       C  0.11573816  0.56172667  0.09209360     0.19700
C4138       C  0.11913980  0.54537632  0.09469793     0.22300
C4139       C  0.11081749  0.53619538  0.10666326    -0.39700
C4140       C  0.09885986  0.54464975  0.11575830     0.21100
N4141       N  0.08322376  0.56603582  0.12324081    -0.33000
C4142       C  0.07887058  0.55278005  0.13228422    -0.10500
C4143       C  0.08845231  0.53924247  0.12791281    -0.29300
N4144       N  0.13071074  0.54006127  0.08415990    -0.45900
C4145       C  0.13479840  0.55311217  0.07468258    -0.05200
C4146       C  0.12571598  0.56686817  0.07938134    -0.22600
H4147       H  0.10092448  0.58291363  0.09896005     0.19200
H4148       H  0.11333974  0.52335479  0.10863334     0.18000
H4149       H  0.08785644  0.52696754  0.13280285     0.14300
H4150       H  0.12593022  0.57891474  0.07394143     0.14200
H4151       H  0.07794723  0.57766004  0.12357489     0.32300
H4152       H  0.13539295  0.52820126  0.08345320     0.35100
C4153       C  0.00882018  0.59179221  0.12783367     0.20700
C4154       C  0.99309623  0.59622099  0.12249419    -0.39200
C4155       C  0.99253158  0.60863520  0.11071872     0.19700
C4156       C  0.00658260  0.61601877  0.10465745     0.22300
C4157       C  0.02234175  0.61171791  0.11014467    -0.39700
C4158       C  0.02289722  0.59930872  0.12199911     0.21100
N4159       N  0.01260611  0.57952026  0.13800481    -0.33000
C4160       C  0.02924338  0.57907184  0.13866442    -0.10500
C4161       C  0.03610918  0.59141822  0.12900012    -0.29300
N4162       N  0.00279165  0.62653765  0.09263771    -0.45900
C4163       C  0.98620131  0.62585043  0.09104323    -0.05200
C4164       C  0.97937288  0.61492853  0.10225172    -0.22600
H4165       H  0.98213083  0.59006046  0.12679699     0.19200
H4166       H  0.03336310  0.61722846  0.10515275     0.18000
H4167       H  0.04898397  0.59373298  0.12664619     0.14300
H4168       H  0.96662693  0.61134365  0.10342045     0.14200
H4169       H  0.00426843  0.57170938  0.14379863     0.32300
H4170       H  0.01107403  0.63345243  0.08572383     0.35100
C4171       C  0.82018705  0.56438643  0.10621152     0.20700
C4172       C  0.81868854  0.57344656  0.12073246    -0.39200
C4173       C  0.80286214  0.57899789  0.12454638     0.19700
C4174       C  0.78943996  0.57594122  0.11463864     0.22300
C4175       C  0.79098424  0.56699828  0.09992507    -0.39700
C4176       C  0.80689480  0.56127676  0.09617352     0.21100
N4177       N  0.83391837  0.55752553  0.10017059    -0.33000
C4178       C  0.82952548  0.54985903  0.08608230    -0.10500
C4179       C  0.81267630  0.55200027  0.08319548    -0.29300
N4180       N  0.77573374  0.58262090  0.12117768    -0.45900
C4181       C  0.78059525  0.58992511  0.13533297    -0.05200
C4182       C  0.79741184  0.58794833  0.13773786    -0.22600
H4183       H  0.82909535  0.57588257  0.12859279     0.19200
H4184       H  0.78057664  0.56454191  0.09207483     0.18000
H4185       H  0.80552859  0.54742261  0.07301838     0.14300
H4186       H  0.80473985  0.59267770  0.14773304     0.14200
H4187       H  0.84552904  0.55809684  0.10550333     0.32300
H4188       H  0.76393544  0.58250012  0.11619767     0.35100
C4189       C  0.89842421  0.57823002  0.07198030     0.20700
C4190       C  0.90887009  0.58810202  0.08162096    -0.39200
C4191       C  0.91941453  0.59874591  0.07294540     0.19700
C4192       C  0.91950986  0.59940393  0.05603017     0.22300
C4193       C  0.90911692  0.58958243  0.04645844    -0.39700
C4194       C  0.89861724  0.57903026  0.05508074     0.21100
N4195       N  0.88745127  0.56693087  0.07710139    -0.33000
C4196       C  0.88062588  0.56043856  0.06332121    -0.10500
C4197       C  0.88733991  0.56782833  0.04938183    -0.29300
N4198       N  0.93060941  0.61033773  0.05062628    -0.45900
C4199       C  0.93779883  0.61689411  0.06413489    -0.05200
C4200       C  0.93107176  0.60989343  0.07834038    -0.22600
H4201       H  0.90883493  0.58750270  0.09486430     0.19200
H4202       H  0.90925399  0.59006650  0.03320969     0.18000
H4203       H  0.88455587  0.56532167  0.03667818     0.14300
H4204       H  0.93428331  0.61243905  0.09093594     0.14200
H4205       H  0.88505034  0.56373129  0.08924380     0.32300
H4206       H  0.93299131  0.61310967  0.03837487     0.35100
C4207       C  0.84329338  0.48460653  0.99066403     0.20700
C4208       C  0.84936898  0.50003588  0.99532498    -0.39200
C4209       C  0.84541949  0.50521537  0.01127188     0.19700
C4210       C  0.83601832  0.49579755  0.02176768     0.22300
C4211       C  0.82978395  0.48043718  0.01706302    -0.39700
C4212       C  0.83379070  0.47522525  0.00112255     0.21100
N4213       N  0.84773960  0.47588775  0.97737403    -0.33000
C4214       C  0.84131515  0.46065629  0.97944417    -0.10500
C4215       C  0.83210421  0.46002235  0.99393700    -0.29300
N4216       N  0.83582934  0.50241990  0.03687134    -0.45900
C4217       C  0.84542570  0.51602273  0.03619152    -0.05200
C4218       C  0.85136294  0.51828283  0.02022640    -0.22600
H4219       H  0.85757489  0.50697705  0.98752374     0.19200
H4220       H  0.82326604  0.47262137  0.02557968     0.18000
H4221       H  0.82671328  0.44924440  0.99946835     0.14300
H4222       H  0.85995737  0.52738149  0.01586856     0.14200
H4223       H  0.85604238  0.47978474  0.96844828     0.32300
H4224       H  0.83051547  0.49732509  0.04735337     0.35100
C4225       C  0.89456702  0.41638092  0.22323540     0.20700
C4226       C  0.91107901  0.42102133  0.22077858    -0.39200
C4227       C  0.91470559  0.42856689  0.20567369     0.19700
C4228       C  0.90278672  0.43125660  0.19395126     0.22300
C4229       C  0.88632690  0.42670921  0.19643243    -0.39700
C4230       C  0.88272152  0.41912856  0.21144733     0.21100
N4231       N  0.88816017  0.40791341  0.23593353    -0.33000
C4232       C  0.87216464  0.40512383  0.23211140    -0.10500
C4233       C  0.86836340  0.41200314  0.21694931    -0.29300
N4234       N  0.90943445  0.43763319  0.18026181    -0.45900
C4235       C  0.92577226  0.43904063  0.18313601    -0.05200
C4236       C  0.92949800  0.43365434  0.19897903    -0.22600
H4237       H  0.92049749  0.41848840  0.22974289     0.19200
H4238       H  0.87709030  0.42842240  0.18708950     0.18000
H4239       H  0.85685584  0.41110997  0.21040483     0.14300
H4240       H  0.94148687  0.43295060  0.20461061     0.14200
H4241       H  0.89449637  0.40348178  0.24610102     0.32300
H4242       H  0.90318614  0.44067908  0.16954506     0.35100
C4243       C  0.01444564  0.50853515  0.17314886     0.20700
C4244       C  0.99947284  0.50304188  0.17975566    -0.39200
C4245       C  0.99345604  0.48817771  0.17348274     0.19700
C4246       C  0.00165113  0.47946673  0.16145726     0.22300
C4247       C  0.01663448  0.48494705  0.15486346    -0.39700
C4248       C  0.02270941  0.49974786  0.16123577     0.21100
N4249       N  0.02157034  0.52323910  0.17546648    -0.33000
C4250       C  0.03445888  0.52397717  0.16490255    -0.10500
C4251       C  0.03559217  0.50933929  0.15596502    -0.29300
N4252       N  0.99240124  0.46688607  0.15609765    -0.45900
C4253       C  0.97813043  0.46753003  0.16476642    -0.05200
C4254       C  0.97846418  0.48066250  0.17576591    -0.22600
H4255       H  0.99255047  0.51026720  0.18848050     0.19200
H4256       H  0.02267046  0.47861822  0.14486992     0.18000
H4257       H  0.04353681  0.50657224  0.14570908     0.14300
H4258       H  0.96844425  0.48499474  0.18334193     0.14200
H4259       H  0.01712815  0.53274927  0.18279484     0.32300
H4260       H  0.99519323  0.45930226  0.14618033     0.35100
C4261       C  0.93993969  0.40475164  0.11498542     0.20700
C4262       C  0.92993951  0.39580547  0.10408693    -0.39200
C4263       C  0.93812052  0.38448158  0.09392644     0.19700
C4264       C  0.95493306  0.38234111  0.09462769     0.22300
C4265       C  0.96488752  0.39125616  0.10546195    -0.39700
C4266       C  0.95673655  0.40250652  0.11557725     0.21100
N4267       N  0.93531587  0.41659935  0.12553016    -0.33000
C4268       C  0.94929432  0.42201733  0.13286547    -0.10500
C4269       C  0.96288579  0.41337473  0.12693426    -0.29300
N4270       N  0.95990054  0.37132106  0.08347398    -0.45900
C4271       C  0.94622021  0.36631508  0.07537863    -0.05200
C4272       C  0.93232323  0.37422312  0.08168306    -0.22600
H4273       H  0.91680897  0.39767866  0.10341775     0.19200
H4274       H  0.97807878  0.38971483  0.10581087     0.18000
H4275       H  0.97565783  0.41496987  0.13016779     0.14300
H4276       H  0.91975769  0.37305695  0.07757914     0.14200
H4277       H  0.92340145  0.42098193  0.12718567     0.32300
H4278       H  0.97200774  0.36762834  0.08153526     0.35100
C4279       C  0.91090189  0.49113127  0.12522273     0.20700
C4280       C  0.90547946  0.50663546  0.12025744    -0.39200
C4281       C  0.89276358  0.50671067  0.10871896     0.19700
C4282       C  0.88612497  0.49241522  0.10248828     0.22300
C4283       C  0.89156587  0.47689332  0.10743955    -0.39700
C4284       C  0.90415454  0.47682042  0.11913478     0.21100
N4285       N  0.92296047  0.48782417  0.13585955    -0.33000
C4286       C  0.92391926  0.47127466  0.13665574    -0.10500
C4287       C  0.91231452  0.46396389  0.12641615    -0.29300
N4288       N  0.87466843  0.49577322  0.09120687    -0.45900
C4289       C  0.87397571  0.51234446  0.09017795    -0.05200
C4290       C  0.88503164  0.51958960  0.10104327    -0.22600
H4291       H  0.91086093  0.51781569  0.12494528     0.19200
H4292       H  0.88645381  0.46571171  0.10246292     0.18000
H4293       H  0.91041053  0.45104199  0.12421631     0.14300
H4294       H  0.88765246  0.53248275  0.10257773     0.14200
H4295       H  0.93007556  0.49638963  0.14217834     0.32300
H4296       H  0.86795099  0.48721579  0.08446151     0.35100
C4297       C  0.71323852  0.37279740  0.57684427     0.20700
C4298       C  0.69701856  0.37529316  0.57158177    -0.39200
C4299       C  0.69347204  0.39091180  0.56542973     0.19700
C4300       C  0.70516945  0.40314979  0.56456528     0.22300
C4301       C  0.72141764  0.40068476  0.56994156    -0.39700
C4302       C  0.72500435  0.38500646  0.57611601     0.21100
N4303       N  0.71928554  0.35939508  0.58415901    -0.33000
C4304       C  0.73498829  0.36299700  0.58839724    -0.10500
C4305       C  0.73908752  0.37886183  0.58339619    -0.29300
N4306       N  0.69865368  0.41687301  0.55818057    -0.45900
C4307       C  0.68265404  0.41337440  0.55490937    -0.05200
C4308       C  0.67902134  0.39725021  0.55938761    -0.22600
H4309       H  0.68775775  0.36581303  0.57243835     0.19200
H4310       H  0.73052812  0.41033422  0.56956295     0.18000
H4311       H  0.75039544  0.38540526  0.58579273     0.14300
H4312       H  0.66748281  0.39079940  0.55817320     0.14200
H4313       H  0.71276199  0.34875627  0.58702608     0.32300
H4314       H  0.70479082  0.42792401  0.55621898     0.35100
C4315       C  0.78837149  0.10696794  0.58030882     0.20700
C4316       C  0.79176925  0.09071694  0.57559907    -0.39200
C4317       C  0.80714632  0.08806701  0.56806996     0.19700
C4318       C  0.81830335  0.10061055  0.56558532     0.22300
C4319       C  0.81485508  0.11680960  0.57014769    -0.39700
C4320       C  0.79950469  0.11947597  0.57753680     0.21100
N4321       N  0.77526583  0.11256249  0.58879236    -0.33000
C4322       C  0.77814608  0.12873708  0.59143137    -0.10500
C4323       C  0.79307691  0.13345330  0.58445471    -0.29300
N4324       N  0.83231416  0.09489582  0.55893783    -0.45900
C4325       C  0.83015460  0.07855540  0.55700522    -0.05200
C4326       C  0.81451506  0.07386305  0.56249010    -0.22600
H4327       H  0.78324986  0.08081336  0.57796077     0.19200
H4328       H  0.82367924  0.12658444  0.56845618     0.18000
H4329       H  0.79899226  0.14529126  0.58534617     0.14300
H4330       H  0.80935812  0.06165397  0.56271056     0.14200
H4331       H  0.76547149  0.10563418  0.59332356     0.32300
H4332       H  0.84268278  0.10176523  0.55581817     0.35100
C4333       C  0.74871726  0.23115772  0.61224111     0.20700
C4334       C  0.73941071  0.24549272  0.61033943    -0.39200
C4335       C  0.74829121  0.26025904  0.61079347     0.19700
C4336       C  0.76517647  0.26068565  0.61270807     0.22300
C4337       C  0.77441913  0.24639823  0.61487521    -0.39700
C4338       C  0.76553171  0.23168570  0.61464102     0.21100
N4339       N  0.74315306  0.21564645  0.61310069    -0.33000
C4340       C  0.75651853  0.20632243  0.61629781    -0.10500
C4341       C  0.77066413  0.21589692  0.61735218    -0.29300
N4342       N  0.77063279  0.27620180  0.61349155    -0.45900
C4343       C  0.75711302  0.28575200  0.61243786    -0.05200
C4344       C  0.74293667  0.27627000  0.61074632    -0.22600
H4345       H  0.72618728  0.24519984  0.60908652     0.19200
H4346       H  0.78752149  0.24674016  0.61703692     0.18000
H4347       H  0.78298704  0.21187461  0.62017642     0.14300
H4348       H  0.73036660  0.28051034  0.61029405     0.14200
H4349       H  0.73097164  0.21172441  0.61222034     0.32300
H4350       H  0.78266992  0.28004659  0.61568780     0.35100
C4351       C  0.93402914  0.12130021  0.71007180     0.20700
C4352       C  0.94041552  0.11875653  0.69430024    -0.39200
C4353       C  0.94574283  0.10284398  0.69081486     0.19700
C4354       C  0.94500960  0.09039586  0.70223294     0.22300
C4355       C  0.93867225  0.09294670  0.71811419    -0.39700
C4356       C  0.93312063  0.10889128  0.72155810     0.21100
N4357       N  0.92641044  0.13479299  0.71554391    -0.33000
C4358       C  0.92034037  0.13101507  0.73053881    -0.10500
C4359       C  0.92447397  0.11500897  0.73485718    -0.29300
N4360       N  0.95002220  0.07619383  0.69550231    -0.45900
C4361       C  0.95381458  0.07961963  0.67962669    -0.05200
C4362       C  0.95133993  0.09616630  0.67633720    -0.22600
H4363       H  0.94051844  0.12831115  0.68514117     0.19200
H4364       H  0.93747681  0.08309061  0.72687235     0.18000
H4365       H  0.92048207  0.10833029  0.74559206     0.14300
H4366       H  0.95318304  0.10251211  0.66486331     0.14200
H4367       H  0.92439237  0.14553427  0.70894172     0.32300
H4368       H  0.95031922  0.06480604  0.70126208     0.35100
C4369       C  0.82588666  0.14630375  0.70447368     0.20700
C4370       C  0.81899296  0.13762203  0.69136209    -0.39200
C4371       C  0.80552577  0.14507227  0.68383881     0.19700
C4372       C  0.79933613  0.15998323  0.68904031     0.22300
C4373       C  0.80617956  0.16862444  0.70220865    -0.39700
C4374       C  0.81970610  0.16121550  0.70968427     0.21100
N4375       N  0.83955143  0.14250173  0.71275088    -0.33000
C4376       C  0.84213966  0.15514601  0.72317646    -0.10500
C4377       C  0.82995152  0.16697701  0.72177585    -0.29300
N4378       N  0.78717589  0.16494500  0.67918838    -0.45900
C4379       C  0.78573313  0.15315055  0.66761361    -0.05200
C4380       C  0.79687593  0.14051676  0.67012516    -0.22600
H4381       H  0.82410863  0.12621229  0.68696539     0.19200
H4382       H  0.80167907  0.18050585  0.70596982     0.18000
H4383       H  0.82916665  0.17857176  0.72815442     0.14300
H4384       H  0.79880553  0.12979236  0.66256607     0.14200
H4385       H  0.84704151  0.13229561  0.71093184     0.32300
H4386       H  0.78069994  0.17594136  0.67991316     0.35100
C4387       C  0.92565518  0.37353726  0.79470528     0.20700
C4388       C  0.93103315  0.37602776  0.81084988    -0.39200
C4389       C  0.93704240  0.39172254  0.81445684     0.19700
C4390       C  0.93777705  0.40400714  0.80287039     0.22300
C4391       C  0.93245114  0.40149437  0.78665372    -0.39700
C4392       C  0.92631550  0.38578407  0.78303988     0.21100
N4393       N  0.91810889  0.36018818  0.78869846    -0.33000
C4394       C  0.91373973  0.36390560  0.77312296    -0.10500
C4395       C  0.91881024  0.37973354  0.76906994    -0.29300
N4396       N  0.94350391  0.41796532  0.80959524    -0.45900
C4397       C  0.94639364  0.41457361  0.82563611    -0.05200
C4398       C  0.94250292  0.39825653  0.82903417    -0.22600
H4399       H  0.93012981  0.36657350  0.82007490     0.19200
H4400       H  0.93261119  0.41119401  0.77765228     0.18000
H4401       H  0.91634309  0.38630078  0.75785041     0.14300
H4402       H  0.94351286  0.39186703  0.84056787     0.14200
H4403       H  0.91523705  0.34952261  0.79513855     0.32300
H4404       H  0.94509667  0.42913911  0.80362286     0.35100
C4405       C  0.84033144  0.35243154  0.68633097     0.20700
C4406       C  0.82618549  0.35999675  0.68027273    -0.39200
C4407       C  0.81934981  0.35298648  0.66619173     0.19700
C4408       C  0.82596563  0.33931391  0.65867865     0.22300
C4409       C  0.84016739  0.33160933  0.66483511    -0.39700
C4410       C  0.84713751  0.33876064  0.67896038     0.21100
N4411       N  0.84803602  0.35599532  0.70039789    -0.33000
C4412       C  0.85980481  0.34449770  0.70229496    -0.10500
C4413       C  0.85981355  0.33359515  0.68902891    -0.29300
N4414       N  0.81620531  0.33428442  0.64629335    -0.45900
C4415       C  0.80330488  0.34482512  0.64605143    -0.05200
C4416       C  0.80495471  0.35667264  0.65823668    -0.22600
H4417       H  0.82053324  0.37027248  0.68646559     0.19200
H4418       H  0.84505318  0.32054466  0.65941016     0.18000
H4419       H  0.86709294  0.32261194  0.68766852     0.14300
H4420       H  0.79619594  0.36605486  0.66157348     0.14200
H4421       H  0.84468692  0.36503867  0.70882379     0.32300
H4422       H  0.81769465  0.32378404  0.63913276     0.35100
C4423       C  0.89571375  0.26256368  0.75951108     0.20700
C4424       C  0.89463215  0.24847248  0.76925074    -0.39200
C4425       C  0.89742528  0.23359014  0.76113705     0.19700
C4426       C  0.90073547  0.23280425  0.74450476     0.22300
C4427       C  0.90220558  0.24694395  0.73484151    -0.39700
C4428       C  0.89967251  0.26185547  0.74301838     0.21100
N4429       N  0.89207108  0.27795547  0.76397265    -0.33000
C4430       C  0.89395495  0.28716140  0.75030848    -0.10500
C4431       C  0.89884145  0.27760833  0.73700191    -0.29300
N4432       N  0.90059510  0.21718512  0.73929452    -0.45900
C4433       C  0.89735739  0.20797971  0.75272323    -0.05200
C4434       C  0.89558032  0.21774843  0.76662989    -0.22600
H4435       H  0.89113294  0.24900534  0.78204276     0.19200
H4436       H  0.90440790  0.24634097  0.72177265     0.18000
H4437       H  0.90048135  0.28148989  0.72443453     0.14300
H4438       H  0.89192475  0.21387694  0.77877936     0.14200
H4439       H  0.88801379  0.28188732  0.77547502     0.32300
H4440       H  0.90175565  0.21309017  0.72721661     0.35100
C4441       C  0.72504692  0.10323636  0.91735054     0.20700
C4442       C  0.72244043  0.08716187  0.92299155    -0.39200
C4443       C  0.70752638  0.08438980  0.93132340     0.19700
C4444       C  0.69614613  0.09669429  0.93381576     0.22300
C4445       C  0.69875571  0.11269893  0.92824958    -0.39700
C4446       C  0.71355811  0.11544087  0.91989262     0.21100
N4447       N  0.73767278  0.10887224  0.90820998    -0.33000
C4448       C  0.73402932  0.12470578  0.90481703    -0.10500
C4449       C  0.71912564  0.12919886  0.91194237    -0.29300
N4450       N  0.68266676  0.09088807  0.94134309    -0.45900
C4451       C  0.68534160  0.07470699  0.94370920    -0.05200
C4452       C  0.70081415  0.07021268  0.93771652    -0.22600
H4453       H  0.73117415  0.07745431  0.92071620     0.19200
H4454       H  0.68968648  0.12222718  0.92988734     0.18000
H4455       H  0.71284714  0.14079931  0.91082627     0.14300
H4456       H  0.70622083  0.05813334  0.93760025     0.14200
H4457       H  0.74768504  0.10216664  0.90385916     0.32300
H4458       H  0.67228002  0.09761847  0.94462308     0.35100
C4459       C  0.82681516  0.15230462  0.83875298     0.20700
C4460       C  0.84022001  0.16106215  0.83228808    -0.39200
C4461       C  0.84835077  0.15372219  0.81896940     0.19700
C4462       C  0.84336886  0.13886878  0.81246846     0.22300
C4463       C  0.83006624  0.13006101  0.81900895    -0.39700
C4464       C  0.82203215  0.13732558  0.83240053     0.21100
N4465       N  0.81594541  0.15751368  0.85006508    -0.33000
C4466       C  0.80409668  0.14583968  0.85083428    -0.10500
C4467       C  0.80761347  0.13295238  0.84015957    -0.29300
N4468       N  0.85165358  0.13553952  0.79858625    -0.45900
C4469       C  0.86200647  0.14832905  0.79620712    -0.05200
C4470       C  0.86047368  0.15981116  0.80879576    -0.22600
H4471       H  0.84354601  0.17309481  0.83675315     0.19200
H4472       H  0.82573306  0.11879507  0.81351392     0.18000
H4473       H  0.79990672  0.12250825  0.83739166     0.14300
H4474       H  0.86630226  0.17170108  0.80954806     0.14200
H4475       H  0.81594396  0.16885382  0.85598977     0.32300
H4476       H  0.84960763  0.12571795  0.79063562     0.35100
C4477       C  0.79713897  0.36779424  0.92525569     0.20700
C4478       C  0.81261923  0.36992554  0.93256091    -0.39200
C4479       C  0.81620616  0.38579570  0.93816065     0.19700
C4480       C  0.80519529  0.39854933  0.93661155     0.22300
C4481       C  0.78981673  0.39647852  0.92906009    -0.39700
C4482       C  0.78621146  0.38059738  0.92346926     0.21100
N4483       N  0.79112431  0.35408508  0.91837387    -0.33000
C4484       C  0.77632248  0.35814589  0.91197339    -0.10500
C4485       C  0.77279902  0.37460155  0.91496608    -0.29300
N4486       N  0.81150660  0.41241501  0.94292074    -0.45900
C4487       C  0.82673767  0.40855967  0.94843062    -0.05200
C4488       C  0.83009708  0.39202679  0.94562061    -0.22600
H4489       H  0.82129727  0.35998243  0.93366352     0.19200
H4490       H  0.78133650  0.40653110  0.92753163     0.18000
H4491       H  0.76229719  0.38145861  0.91070883     0.14300
H4492       H  0.84114472  0.38539549  0.94869984     0.14200
H4493       H  0.79713068  0.34285174  0.91731350     0.32300
H4494       H  0.80586626  0.42387259  0.94314987     0.35100
C4495       C  0.80072724  0.32698280  0.81570480     0.20700
C4496       C  0.80766361  0.31887382  0.80224301    -0.39200
C4497       C  0.81864497  0.32813597  0.79282764     0.19700
C4498       C  0.82246255  0.34423843  0.79655995     0.22300
C4499       C  0.81550410  0.35236078  0.81002807    -0.39700
C4500       C  0.80451776  0.34308605  0.81945443     0.21100
N4501       N  0.79019720  0.32075620  0.82671732    -0.33000
C4502       C  0.78730398  0.33297096  0.83755125    -0.10500
C4503       C  0.79600815  0.34709322  0.83348394    -0.29300
N4504       N  0.83421640  0.34990376  0.78649535    -0.45900
C4505       C  0.83793802  0.33727439  0.77639621    -0.05200
C4506       C  0.82836886  0.32355738  0.77982278    -0.22600
H4507       H  0.80498754  0.30618200  0.79951795     0.19200
H4508       H  0.81870300  0.36483902  0.81315559     0.18000
H4509       H  0.79604624  0.35870079  0.83989014     0.14300
H4510       H  0.82926219  0.31152644  0.77432889     0.14200
H4511       H  0.78530621  0.30893262  0.82688416     0.32300
H4512       H  0.83999988  0.36130972  0.78706608     0.35100
C4513       C  0.74458177  0.25518310  0.89130897     0.20700
C4514       C  0.73543808  0.24068001  0.88971330    -0.39200
C4515       C  0.74432996  0.22605499  0.89125231     0.19700
C4516       C  0.76103530  0.22583242  0.89437682     0.22300
C4517       C  0.77017499  0.24033359  0.89592512    -0.39700
C4518       C  0.76133402  0.25494986  0.89414482     0.21100
N4519       N  0.73936135  0.27058544  0.88868322    -0.33000
C4520       C  0.75295550  0.28015707  0.88955943    -0.10500
C4521       C  0.76684503  0.27085116  0.89302229    -0.29300
N4522       N  0.76693628  0.21048001  0.89339609    -0.45900
C4523       C  0.75396668  0.20093449  0.88924154    -0.05200
C4524       C  0.73964395  0.21017929  0.88802441    -0.22600
H4525       H  0.72253283  0.24076646  0.88658360     0.19200
H4526       H  0.78336915  0.24024030  0.89746893     0.18000
H4527       H  0.77942988  0.27506610  0.89374572     0.14300
H4528       H  0.72770152  0.20603774  0.88394027     0.14200
H4529       H  0.72752002  0.27422329  0.88545001     0.32300
H4530       H  0.77923558  0.20694726  0.89405403     0.35100
C4531       C  0.58393437  0.11640656  0.79044624     0.20700
C4532       C  0.57709306  0.11435457  0.80610960    -0.39200
C4533       C  0.57265143  0.09831965  0.81031880     0.19700
C4534       C  0.57473910  0.08526695  0.79972060     0.22300
C4535       C  0.58162828  0.08731044  0.78399469    -0.39700
C4536       C  0.58615316  0.10341084  0.77977780     0.21100
N4537       N  0.59031334  0.13021665  0.78417365    -0.33000
C4538       C  0.59681850  0.12610073  0.76942993    -0.10500
C4539       C  0.59431527  0.10947781  0.76615686    -0.29300
N4540       N  0.56978621  0.07122926  0.80685957    -0.45900
C4541       C  0.56462852  0.07538835  0.82217022    -0.05200
C4542       C  0.56623602  0.09221058  0.82469899    -0.22600
H4543       H  0.57571389  0.12446770  0.81457925     0.19200
H4544       H  0.58366584  0.07707969  0.77580649     0.18000
H4545       H  0.59889489  0.10255088  0.75580250     0.14300
H4546       H  0.56299799  0.09914728  0.83553288     0.14200
H4547       H  0.59108870  0.14156829  0.79002811     0.32300
H4548       H  0.57012058  0.05953740  0.80169204     0.35100
C4549       C  0.67254315  0.13557021  0.68711838     0.20700
C4550       C  0.68740657  0.12865194  0.68191656    -0.39200
C4551       C  0.69447452  0.13558931  0.66789424     0.19700
C4552       C  0.68734466  0.14852455  0.65965024     0.22300
C4553       C  0.67241491  0.15546730  0.66486986    -0.39700
C4554       C  0.66525199  0.14843502  0.67889624     0.21100
N4555       N  0.66463177  0.13249336  0.70121702    -0.33000
C4556       C  0.65224804  0.14349396  0.70214719    -0.10500
C4557       C  0.65203876  0.15350024  0.68830162    -0.29300
N4558       N  0.69744722  0.15403274  0.64777583    -0.45900
C4559       C  0.71111791  0.14461397  0.64862128    -0.05200
C4560       C  0.70962629  0.13289605  0.66091307    -0.22600
H4561       H  0.69347113  0.11912126  0.68879988     0.19200
H4562       H  0.66719429  0.16607562  0.65894419     0.18000
H4563       H  0.64442134  0.16413291  0.68627081     0.14300
H4564       H  0.71890061  0.12437967  0.66501068     0.14200
H4565       H  0.66827558  0.12430196  0.71031040     0.32300
H4566       H  0.69565558  0.16426999  0.64036122     0.35100
C4567       C  0.69351474  0.14559416  0.78845848     0.20700
C4568       C  0.70255858  0.13595445  0.79933032    -0.39200
C4569       C  0.71429333  0.14429172  0.80866827     0.19700
C4570       C  0.71694208  0.16096941  0.80722044     0.22300
C4571       C  0.70802116  0.17060595  0.79617117    -0.39700
C4572       C  0.69619215  0.16226140  0.78686959     0.21100
N4573       N  0.68041033  0.14088753  0.77971096    -0.33000
C4574       C  0.67463446  0.15464615  0.77259415    -0.10500
C4575       C  0.68428873  0.16819692  0.77650397    -0.29300
N4576       N  0.72767515  0.16617251  0.81858240    -0.45900
C4577       C  0.73173847  0.15271016  0.82733650    -0.05200
C4578       C  0.72375246  0.13883173  0.82144788    -0.22600
H4579       H  0.70004499  0.12305793  0.80101334     0.19200
H4580       H  0.70959965  0.18373661  0.79545931     0.18000
H4581       H  0.68218186  0.18082163  0.77315259     0.14300
H4582       H  0.72409610  0.12658763  0.82645612     0.14200
H4583       H  0.67522151  0.12919575  0.77926687     0.32300
H4584       H  0.73132875  0.17823132  0.82080251     0.35100
C4585       C  0.58343814  0.37238739  0.70800168     0.20700
C4586       C  0.57571821  0.37404095  0.69267977    -0.39200
C4587       C  0.57123730  0.39002856  0.68820235     0.19700
C4588       C  0.57402734  0.40332784  0.69832262     0.22300
C4589       C  0.58177946  0.40167632  0.71363705    -0.39700
C4590       C  0.58642380  0.38570350  0.71805620     0.21100
N4591       N  0.59006159  0.35874208  0.71438374    -0.33000
C4592       C  0.59750830  0.36331690  0.72854331    -0.10500
C4593       C  0.59537422  0.38007063  0.73131406    -0.29300
N4594       N  0.56887640  0.41723747  0.69115696    -0.45900
C4595       C  0.56288243  0.41285977  0.67625820    -0.05200
C4596       C  0.56418716  0.39593780  0.67399651    -0.22600
H4597       H  0.57376257  0.36368694  0.68462657     0.19200
H4598       H  0.58439069  0.41213359  0.72136111     0.18000
H4599       H  0.60059412  0.38733549  0.74110641     0.14300
H4600       H  0.56035997  0.38885907  0.66345505     0.14200
H4601       H  0.59033365  0.34716940  0.70893746     0.32300
H4602       H  0.56965008  0.42903581  0.69602845     0.35100
C4603       C  0.68972113  0.34547783  0.70241849     0.20700
C4604       C  0.69673593  0.35430302  0.68948031    -0.39200
C4605       C  0.71032089  0.34699954  0.68193538     0.19700
C4606       C  0.71649251  0.33203964  0.68690346     0.22300
C4607       C  0.70949169  0.32321091  0.69990324    -0.39700
C4608       C  0.69585335  0.33052086  0.70744767     0.21100
N4609       N  0.67615129  0.34937167  0.71089122    -0.33000
C4610       C  0.67357444  0.33679797  0.72134819    -0.10500
C4611       C  0.68562932  0.32482073  0.71965914    -0.29300
N4612       N  0.72870891  0.32721281  0.67693155    -0.45900
C4613       C  0.73016738  0.33913963  0.66551343    -0.05200
C4614       C  0.71903489  0.35174122  0.66830159    -0.22600
H4615       H  0.69166465  0.36576924  0.68526157     0.19200
H4616       H  0.71400391  0.31131645  0.70353109     0.18000
H4617       H  0.68645682  0.31328424  0.72608383     0.14300
H4618       H  0.71700453  0.36247529  0.66084084     0.14200
H4619       H  0.66881194  0.35971292  0.70932207     0.32300
H4620       H  0.73510746  0.31616207  0.67738928     0.35100
C4621       C  0.67501004  0.35033133  0.81130481     0.20700
C4622       C  0.69007388  0.35680036  0.81661749    -0.39200
C4623       C  0.69661482  0.34990277  0.83089425     0.19700
C4624       C  0.68869015  0.33756808  0.83941102     0.22300
C4625       C  0.67362649  0.33096561  0.83399581    -0.39700
C4626       C  0.66710512  0.33780754  0.81956820     0.21100
N4627       N  0.66735585  0.35363523  0.79713941    -0.33000
C4628       C  0.65458947  0.34302235  0.79604196    -0.10500
C4629       C  0.65386975  0.33305514  0.80996241    -0.29300
N4630       N  0.69810240  0.33231355  0.85191437    -0.45900
C4631       C  0.71220464  0.34118549  0.85116150    -0.05200
C4632       C  0.71167199  0.35230636  0.83822529    -0.22600
H4633       H  0.69661239  0.36603435  0.80968789     0.19200
H4634       H  0.66779019  0.32077417  0.84015237     0.18000
H4635       H  0.64569772  0.32281407  0.81208360     0.14300
H4636       H  0.72138167  0.36041774  0.83416773     0.14200
H4637       H  0.67134062  0.36180817  0.78813727     0.32300
H4638       H  0.69554895  0.32258977  0.85980845     0.35100
C4639       C  0.61930163  0.25984056  0.73945431     0.20700
C4640       C  0.62084385  0.24582443  0.72956991    -0.39200
C4641       C  0.61892829  0.23076764  0.73760304     0.19700
C4642       C  0.61599266  0.22976577  0.75428056     0.22300
C4643       C  0.61430469  0.24379517  0.76414498    -0.39700
C4644       C  0.61595792  0.25887125  0.75605783     0.21100
N4645       N  0.62168874  0.27547530  0.73495368    -0.33000
C4646       C  0.61975619  0.28459114  0.74872653    -0.10500
C4647       C  0.61601877  0.27467937  0.76214159    -0.29300
N4648       N  0.61610081  0.21407325  0.75920735    -0.45900
C4649       C  0.61896642  0.20499841  0.74556684    -0.05200
C4650       C  0.62066268  0.21497146  0.73181262    -0.22600
H4651       H  0.62377046  0.24658220  0.71665128     0.19200
H4652       H  0.61230948  0.24302203  0.77723472     0.18000
H4653       H  0.61454681  0.27843472  0.77478120     0.14300
H4654       H  0.62379364  0.21123396  0.71946708     0.14200
H4655       H  0.62502953  0.27965315  0.72332392     0.32300
H4656       H  0.61490528  0.20981989  0.77121064     0.35100
loop_ 
_geom_bond_atom_site_label_1 
_geom_bond_atom_site_label_2 
_geom_bond_distance 
_geom_bond_site_symmetry_2 
_ccdc_geom_bond_type 
In1           O3   2.239       .  S
In1           O4   2.269       .  S
In1          O12   2.264       .  S
In1           O6   2.295       .  S
In1           O8   2.294       .  S
In1           O9   2.251       .  S
In1          O10   2.250       .  S
In1          O13   2.243       .  S
C2            O8   1.262       .  A
C2           O10   1.257       .  A
C2         C4628   1.482       .  S
O3           C11   1.260       .  A
O4           C11   1.266       .  A
C5           O12   1.255       .  A
C5            O6   1.260       .  A
C5         C4592   1.485       .  S
C7            O9   1.259       .  A
C7           O13   1.258       .  A
C7         C4610   1.464       .  S
C11        C4646   1.476       .  S
In14         O16   2.264       .  S
In14         O17   2.246       .  S
In14         O25   2.254       .  S
In14         O19   2.288       .  S
In14         O21   2.272       .  S
In14         O22   2.251       .  S
In14         O23   2.229       .  S
In14         O26   2.245       .  S
C15          O21   1.264       .  A
C15          O23   1.257       .  A
C15        C4556   1.471       .  S
O16          C24   1.263       .  A
O17          C24   1.260       .  A
C18          O25   1.254       .  A
C18          O19   1.259       .  A
C18        C4538   1.478       .  S
C20          O22   1.258       .  A
C20          O26   1.259       .  A
C20        C4574   1.464       .  S
C24        C4649   1.474       .  S
In27         O29   2.241       .  S
In27         O30   2.242       .  S
In27         O38   2.253       .  S
In27         O32   2.285       .  S
In27         O34   2.283       .  S
In27         O35   2.241       .  S
In27         O36   2.252       .  S
In27         O39   2.275       .  S
C28          O34   1.263       .  A
C28          O36   1.257       .  A
C28        C4631   1.480       .  S
O29          C37   1.259       .  A
O30          C37   1.261       .  A
C31          O38   1.254       .  A
C31          O32   1.260       .  A
C31        C4484   1.478       .  S
C33          O35   1.259       .  A
C33          O39   1.263       .  A
C33        C4520   1.474       .  S
C37        C4502   1.462       .  S
In40         O42   2.243       .  S
In40         O43   2.255       .  S
In40         O51   2.238       .  S
In40         O45   2.295       .  S
In40         O47   2.266       .  S
In40         O48   2.225       .  S
In40         O49   2.258       .  S
In40         O52   2.269       .  S
C41          O47   1.260       .  A
C41          O49   1.260       .  A
C41        C4466   1.476       .  S
O42          C50   1.258       .  A
O43          C50   1.258       .  A
C44          O51   1.253       .  A
C44          O45   1.261       .  A
C44        C4448   1.476       .  S
C46          O48   1.260       .  A
C46          O52   1.266       .  A
C46        C4523   1.472       .  S
C50        C4577   1.466       .  S
In53         O55   2.258       .  S
In53         O56   2.230       .  S
In53         O64   2.246       .  S
In53         O58   2.288       .  S
In53         O60   2.280       .  S
In53         O61   2.237       .  S
In53         O62   2.243       .  S
In53         O65   2.244       .  S
C54          O60   1.260       .  A
C54          O62   1.258       .  A
C54        C4412   1.476       .  S
O55          C63   1.265       .  A
O56          C63   1.259       .  A
C57          O64   1.254       .  A
C57          O58   1.262       .  A
C57        C4394   1.478       .  S
C59          O61   1.259       .  A
C59          O65   1.260       .  A
C59        C4505   1.462       .  S
C63        C4430   1.468       .  S
In66         O68   2.251       .  S
In66         O69   2.255       .  S
In66         O77   2.243       .  S
In66         O71   2.282       .  S
In66         O73   2.260       .  S
In66         O74   2.249       .  S
In66         O75   2.254       .  S
In66         O78   2.239       .  S
C67          O73   1.260       .  A
C67          O75   1.259       .  A
C67        C4469   1.473       .  S
O68          C76   1.261       .  A
O69          C76   1.262       .  A
C70          O77   1.254       .  A
C70          O71   1.260       .  A
C70        C4358   1.474       .  S
C72          O74   1.260       .  A
C72          O78   1.258       .  A
C72        C4376   1.463       .  S
C76        C4433   1.471       .  S
In79         O81   2.237       .  S
In79         O82   2.245       .  S
In79         O90   2.248       .  S
In79         O84   2.291       .  S
In79         O86   2.270       .  S
In79         O87   2.234       .  S
In79         O88   2.240       .  S
In79         O91   2.271       .  S
C80          O86   1.262       .  A
C80          O88   1.258       .  A
C80        C4559   1.473       .  S
O81          C89   1.259       .  A
O82          C89   1.259       .  A
C83          O90   1.255       .  A
C83          O84   1.260       .  A
C83        C4322   1.480       .  S
C85          O87   1.259       .  A
C85          O91   1.264       .  A
C85        C4340   1.473       .  S
C89        C4379   1.461       .  S
In92         O94   2.241       .  S
In92         O95   2.248       .  S
In92        O103   2.247       .  S
In92         O97   2.305       .  S
In92         O99   2.280       .  S
In92        O100   2.241       .  S
In92        O101   2.251       .  S
In92        O104   2.260       .  S
C93          O99   1.261       .  A
C93         O101   1.260       .  A
C93        C4415   1.480       .  S
O94         C102   1.259       .  A
O95         C102   1.259       .  A
C96         O103   1.254       .  A
C96          O97   1.263       .  A
C96        C4304   1.484       .  S
C98         O100   1.259       .  A
C98         O104   1.264       .  A
C98        C4343   1.470       .  S
C102       C4613   1.463       .  S
C105        C106   1.537       .  S
C105        C111   1.531       .  S
C105        C109   1.539       .  S
C105       C4253   1.519       .  S
C106        H113   1.086       .  S
C106        C107   1.369       .  D
C107        C108   1.549       .  S
C107       C4235   1.492       .  S
C108        C112   1.540       .  S
C108        C110   1.547       .  S
C108        H114   1.107       .  S
C109        H115   1.082       .  S
C109        C110   1.372       .  D
C110       C4268   1.495       .  S
C111        H116   1.086       .  S
C111        C112   1.362       .  D
C112       C4286   1.481       .  S
C117        C118   1.534       .  S
C117        C123   1.530       .  S
C117        C121   1.543       .  S
C117       C4217   1.523       .  S
C118        H125   1.085       .  S
C118        C119   1.371       .  D
C119        C120   1.553       .  S
C119       C4178   1.496       .  S
C120        C124   1.545       .  S
C120        C122   1.543       .  S
C120        H126   1.104       .  S
C121        H127   1.081       .  S
C121        C122   1.372       .  D
C122       C4196   1.498       .  S
C123        H128   1.085       .  S
C123        C124   1.362       .  D
C124       C4289   1.484       .  S
C129        C130   1.535       .  S
C129        C135   1.533       .  S
C129        C133   1.539       .  S
C129       C4250   1.522       .  S
C130        H137   1.082       .  S
C130        C131   1.365       .  D
C131        C132   1.548       .  S
C131       C4142   1.493       .  S
C132        C136   1.540       .  S
C132        C134   1.548       .  S
C132        H138   1.108       .  S
C133        H139   1.086       .  S
C133        C134   1.374       .  D
C134       C4124   1.490       .  S
C135        H140   1.085       .  S
C135        C136   1.365       .  D
C136       C4160   1.483       .  S
C141        C142   1.543       .  S
C141        C147   1.531       .  S
C141        C145   1.539       .  S
C141       C4106   1.523       .  S
C142        H149   1.081       .  S
C142        C143   1.372       .  D
C143        C144   1.545       .  S
C143       C4199   1.499       .  S
C144        C148   1.541       .  S
C144        C146   1.551       .  S
C144        H150   1.105       .  S
C145        H151   1.084       .  S
C145        C146   1.373       .  D
C146       C4091   1.499       .  S
C147        H152   1.086       .  S
C147        C148   1.360       .  D
C148       C4163   1.481       .  S
C153        C154   1.538       .  S
C153        C159   1.531       .  S
C153        C157   1.540       .  S
C153       C4109   1.525       .  S
C154        H161   1.085       .  S
C154        C155   1.374       .  D
C155        C156   1.549       .  S
C155       C4034   1.494       .  S
C156        C160   1.541       .  S
C156        C158   1.545       .  S
C156        H162   1.106       .  S
C157        H163   1.079       .  S
C157        C158   1.369       .  D
C158       C4052   1.495       .  S
C159        H164   1.086       .  S
C159        C160   1.361       .  D
C160       C4070   1.481       .  S
C165        C166   1.542       .  S
C165        C171   1.532       .  S
C165        C169   1.544       .  S
C165       C4016   1.527       .  S
C166        H173   1.085       .  S
C166        C167   1.375       .  D
C167        C168   1.549       .  S
C167       C3998   1.497       .  S
C168        C172   1.538       .  S
C168        C170   1.544       .  S
C168        H174   1.106       .  S
C169        H175   1.082       .  S
C169        C170   1.369       .  D
C170       C4145   1.494       .  S
C171        H176   1.086       .  S
C171        C172   1.362       .  D
C172       C4073   1.482       .  S
C177        C178   1.539       .  S
C177        C183   1.530       .  S
C177        C181   1.537       .  S
C177       C4214   1.523       .  S
C178        H185   1.081       .  S
C178        C179   1.371       .  D
C179        C180   1.548       .  S
C179       C3962   1.496       .  S
C180        C184   1.544       .  S
C180        C182   1.549       .  S
C180        H186   1.108       .  S
C181        H187   1.085       .  S
C181        C182   1.372       .  D
C182       C4487   1.489       .  S
C183        H188   1.086       .  S
C183        C184   1.361       .  D
C184       C3980   1.486       .  S
C189        C190   1.536       .  S
C189        C195   1.528       .  S
C189        C193   1.539       .  S
C189       C3944   1.521       .  S
C190        H197   1.081       .  S
C190        C191   1.369       .  D
C191        C192   1.549       .  S
C191       C4271   1.494       .  S
C192        C196   1.542       .  S
C192        C194   1.550       .  S
C192        H198   1.108       .  S
C193        H199   1.086       .  S
C193        C194   1.373       .  D
C194       C3929   1.492       .  S
C195        H200   1.086       .  S
C195        C196   1.362       .  D
C196       C3983   1.484       .  S
C201        C202   1.540       .  S
C201        C207   1.528       .  S
C201        C205   1.544       .  S
C201       C3890   1.519       .  S
C202        H209   1.085       .  S
C202        C203   1.376       .  D
C203        C204   1.551       .  S
C203       C4397   1.494       .  S
C204        C208   1.535       .  S
C204        C206   1.541       .  S
C204        H210   1.106       .  S
C205        H211   1.083       .  S
C205        C206   1.366       .  D
C206       C3965   1.494       .  S
C207        H212   1.086       .  S
C207        C208   1.360       .  D
C208       C3908   1.473       .  S
C213        C214   1.540       .  S
C213        C219   1.527       .  S
C213        C217   1.539       .  S
C213       C3947   1.523       .  S
C214        H221   1.084       .  S
C214        C215   1.375       .  D
C215        C216   1.547       .  S
C215       C3854   1.493       .  S
C216        C220   1.542       .  S
C216        C218   1.543       .  S
C216        H222   1.104       .  S
C217        H223   1.081       .  S
C217        C218   1.369       .  D
C218       C3872   1.493       .  S
C219        H224   1.085       .  S
C219        C220   1.361       .  D
C220       C3911   1.482       .  S
C225        C226   1.538       .  S
C225        C231   1.528       .  S
C225        C229   1.537       .  S
C225       C3893   1.518       .  S
C226        H233   1.083       .  S
C226        C227   1.369       .  D
C227        C228   1.548       .  S
C227       C4055   1.496       .  S
C228        C232   1.541       .  S
C228        C230   1.550       .  S
C228        H234   1.106       .  S
C229        H235   1.085       .  S
C229        C230   1.372       .  D
C230       C3818   1.490       .  S
C231        H236   1.086       .  S
C231        C232   1.363       .  D
C232       C3836   1.484       .  S
C237        C238   1.543       .  S
C237        C243   1.531       .  S
C237        C241   1.536       .  S
C237       C4019   1.526       .  S
C238        H245   1.082       .  S
C238        C239   1.373       .  D
C239        C240   1.549       .  S
C239       C3875   1.496       .  S
C240        C244   1.544       .  S
C240        C242   1.551       .  S
C240        H246   1.108       .  S
C241        H247   1.085       .  S
C241        C242   1.371       .  D
C242       C3803   1.494       .  S
C243        H248   1.086       .  S
C243        C244   1.363       .  D
C244       C3839   1.488       .  S
In249       O251   2.246       .  S
In249       O252   2.247       .  S
In249       O260   2.243       .  S
In249       O254   2.296       .  S
In249       O256   2.279       .  S
In249       O257   2.235       .  S
In249       O258   2.258       .  S
In249       O261   2.267       .  S
C250        O256   1.260       .  A
C250        O258   1.258       .  A
C250       C3746   1.480       .  S
O251        C259   1.258       .  A
O252        C259   1.259       .  A
C253        O260   1.256       .  A
C253        O254   1.264       .  A
C253       C3728   1.482       .  S
C255        O257   1.261       .  A
C255        O261   1.266       .  A
C255       C3782   1.475       .  S
C259       C3764   1.464       .  S
In262       O264   2.256       .  S
In262       O265   2.246       .  S
In262       O273   2.237       .  S
In262       O267   2.278       .  S
In262       O269   2.283       .  S
In262       O270   2.227       .  S
In262       O271   2.246       .  S
In262       O274   2.275       .  S
C263        O269   1.261       .  A
C263        O271   1.257       .  A
C263       C3710   1.478       .  S
O264        C272   1.259       .  A
O265        C272   1.258       .  A
C266        O273   1.256       .  A
C266        O267   1.263       .  A
C266       C3674   1.474       .  S
C268        O270   1.260       .  A
C268        O274   1.264       .  A
C268       C3785   1.473       .  S
C272       C3692   1.467       .  S
In275       O277   2.258       .  S
In275       O278   2.275       .  S
In275       O286   2.234       .  S
In275       O280   2.286       .  S
In275       O282   2.279       .  S
In275       O283   2.260       .  S
In275       O284   2.237       .  S
In275       O287   2.246       .  S
C276        O282   1.265       .  A
C276        O284   1.258       .  A
C276       C3638   1.477       .  S
O277        C285   1.260       .  A
O278        C285   1.260       .  A
C279        O286   1.256       .  A
C279        O280   1.264       .  A
C279       C3620   1.476       .  S
C281        O283   1.259       .  A
C281        O287   1.256       .  A
C281       C3695   1.467       .  S
C285       C3656   1.479       .  S
In288       O290   2.292       .  S
In288       O291   2.228       .  S
In288       O299   2.228       .  S
In288       O293   2.299       .  S
In288       O295   2.270       .  S
In288       O296   2.240       .  S
In288       O297   2.261       .  S
In288       O300   2.254       .  S
C289        O295   1.259       .  A
C289        O297   1.258       .  A
C289       C3749   1.478       .  S
O290        C298   1.267       .  A
O291        C298   1.259       .  A
C292        O299   1.255       .  A
C292        O293   1.264       .  A
C292       C4181   1.479       .  S
C294        O296   1.257       .  A
C294        O300   1.260       .  A
C294       C3602   1.465       .  S
C298       C3659   1.480       .  S
In301       O303   2.254       .  S
In301       O304   2.272       .  S
In301       O312   2.253       .  S
In301       O306   2.291       .  S
In301       O308   2.274       .  S
In301       O309   2.250       .  S
In301       O310   2.247       .  S
In301       O313   2.248       .  S
C302        O308   1.263       .  A
C302        O310   1.259       .  A
C302       C3713   1.478       .  S
O303        C311   1.260       .  A
O304        C311   1.264       .  A
C305        O312   1.257       .  A
C305        O306   1.262       .  A
C305       C3548   1.483       .  S
C307        O309   1.257       .  A
C307        O313   1.258       .  A
C307       C3566   1.464       .  S
C311       C3584   1.480       .  S
In314       O316   2.283       .  S
In314       O317   2.227       .  S
In314       O325   2.238       .  S
In314       O319   2.288       .  S
In314       O321   2.266       .  S
In314       O322   2.238       .  S
In314       O323   2.254       .  S
In314       O326   2.243       .  S
C315        O321   1.261       .  A
C315        O323   1.258       .  A
C315       C3530   1.477       .  S
O316        C324   1.267       .  A
O317        C324   1.259       .  A
C318        O325   1.256       .  A
C318        O319   1.263       .  A
C318       C3512   1.477       .  S
C320        O322   1.258       .  A
C320        O326   1.259       .  A
C320       C3767   1.461       .  S
C324       C3587   1.477       .  S
In327       O329   2.244       .  S
In327       O330   2.239       .  S
In327       O338   2.229       .  S
In327       O332   2.294       .  S
In327       O334   2.266       .  S
In327       O335   2.238       .  S
In327       O336   2.239       .  S
In327       O339   2.283       .  S
C328        O334   1.264       .  A
C328        O336   1.258       .  A
C328       C3641   1.473       .  S
O329        C337   1.259       .  A
O330        C337   1.257       .  A
C331        O338   1.255       .  A
C331        O332   1.263       .  A
C331       C3476   1.476       .  S
C333        O335   1.259       .  A
C333        O339   1.265       .  A
C333       C3494   1.479       .  S
C337       C3569   1.461       .  S
In340       O342   2.237       .  S
In340       O343   2.250       .  S
In340       O351   2.250       .  S
In340       O345   2.299       .  S
In340       O347   2.280       .  S
In340       O348   2.232       .  S
In340       O349   2.264       .  S
In340       O352   2.293       .  S
C341        O347   1.262       .  A
C341        O349   1.257       .  A
C341       C3533   1.481       .  S
O342        C350   1.258       .  A
O343        C350   1.261       .  A
C344        O351   1.257       .  A
C344        O345   1.264       .  A
C344       C4088   1.485       .  S
C346        O348   1.257       .  A
C346        O352   1.267       .  A
C346       C3497   1.481       .  S
C350       C3605   1.464       .  S
C353        C354   1.536       .  S
C353        C359   1.531       .  S
C353        C357   1.541       .  S
C353       C3440   1.522       .  S
C354        H361   1.085       .  S
C354        C355   1.372       .  D
C355        C356   1.552       .  S
C355       C3407   1.497       .  S
C356        C360   1.540       .  S
C356        C358   1.546       .  S
C356        H362   1.104       .  S
C357        H363   1.081       .  S
C357        C358   1.371       .  D
C358       C3422   1.498       .  S
C359        H364   1.086       .  S
C359        C360   1.362       .  D
C360       C3461   1.481       .  S
C365        C366   1.538       .  S
C365        C371   1.531       .  S
C365        C369   1.541       .  S
C365       C3368   1.517       .  S
C366        H373   1.085       .  S
C366        C367   1.372       .  D
C367        C368   1.547       .  S
C367       C3353   1.491       .  S
C368        C372   1.540       .  S
C368        C370   1.546       .  S
C368        H374   1.106       .  S
C369        H375   1.083       .  S
C369        C370   1.368       .  D
C370       C3386   1.493       .  S
C371        H376   1.086       .  S
C371        C372   1.362       .  D
C372       C3458   1.483       .  S
C377        C378   1.537       .  S
C377        C383   1.530       .  S
C377        C381   1.533       .  S
C377       C3371   1.516       .  S
C378        H385   1.081       .  S
C378        C379   1.367       .  D
C379        C380   1.543       .  S
C379       C3314   1.485       .  S
C380        C384   1.538       .  S
C380        C382   1.547       .  S
C380        H386   1.107       .  S
C381        H387   1.085       .  S
C381        C382   1.370       .  D
C382       C3299   1.486       .  S
C383        H388   1.085       .  S
C383        C384   1.364       .  D
C384       C3332   1.480       .  S
C389        C390   1.543       .  S
C389        C395   1.528       .  S
C389        C393   1.537       .  S
C389       C3278   1.520       .  S
C390        H397   1.081       .  S
C390        C391   1.372       .  D
C391        C392   1.547       .  S
C391       C3425   1.498       .  S
C392        C396   1.540       .  S
C392        C394   1.546       .  S
C392        H398   1.107       .  S
C393        H399   1.085       .  S
C393        C394   1.373       .  D
C394       C3263   1.491       .  S
C395        H400   1.086       .  S
C395        C396   1.356       .  D
C396       C3335   1.474       .  S
C401        C402   1.533       .  S
C401        C407   1.532       .  S
C401        C405   1.543       .  S
C401       C3281   1.517       .  S
C402        H409   1.085       .  S
C402        C403   1.368       .  D
C403        C404   1.552       .  S
C403       C4361   1.489       .  S
C404        C408   1.541       .  S
C404        C406   1.545       .  S
C404        H410   1.107       .  S
C405        H411   1.082       .  S
C405        C406   1.371       .  D
C406       C3224   1.496       .  S
C407        H412   1.086       .  S
C407        C408   1.362       .  D
C408       C3242   1.483       .  S
C413        C414   1.533       .  S
C413        C419   1.534       .  S
C413        C417   1.542       .  S
C413       C3209   1.520       .  S
C414        H421   1.085       .  S
C414        C415   1.368       .  D
C415        C416   1.548       .  S
C415       C3191   1.492       .  S
C416        C420   1.540       .  S
C416        C418   1.545       .  S
C416        H422   1.106       .  S
C417        H423   1.083       .  S
C417        C418   1.372       .  D
C418       C3317   1.490       .  S
C419        H424   1.085       .  S
C419        C420   1.363       .  D
C420       C3245   1.486       .  S
C425        C426   1.536       .  S
C425        C431   1.532       .  S
C425        C429   1.533       .  S
C425       C3443   1.518       .  S
C426        H433   1.080       .  S
C426        C427   1.369       .  D
C427        C428   1.545       .  S
C427       C3152   1.491       .  S
C428        C432   1.542       .  S
C428        C430   1.551       .  S
C428        H434   1.105       .  S
C429        H435   1.084       .  S
C429        C430   1.371       .  D
C430       C3479   1.491       .  S
C431        H436   1.085       .  S
C431        C432   1.364       .  D
C432       C3170   1.486       .  S
C437        C438   1.539       .  S
C437        C443   1.532       .  S
C437        C441   1.540       .  S
C437       C3137   1.522       .  S
C438        H445   1.083       .  S
C438        C439   1.371       .  D
C439        C440   1.549       .  S
C439       C3389   1.493       .  S
C440        C444   1.546       .  S
C440        C442   1.551       .  S
C440        H446   1.109       .  S
C441        H447   1.086       .  S
C441        C442   1.370       .  D
C442       C3116   1.493       .  S
C443        H448   1.086       .  S
C443        C444   1.361       .  D
C444       C3173   1.488       .  S
C449        C450   1.540       .  S
C449        C455   1.533       .  S
C449        C453   1.537       .  S
C449       C3206   1.523       .  S
C450        H457   1.081       .  S
C450        C451   1.370       .  D
C451        C452   1.546       .  S
C451       C3080   1.496       .  S
C452        C456   1.543       .  S
C452        C454   1.547       .  S
C452        H458   1.107       .  S
C453        H459   1.086       .  S
C453        C454   1.371       .  D
C454       C3062   1.488       .  S
C455        H460   1.086       .  S
C455        C456   1.363       .  D
C456       C3098   1.487       .  S
C461        C462   1.541       .  S
C461        C467   1.533       .  S
C461        C465   1.535       .  S
C461       C3047   1.525       .  S
C462        H469   1.082       .  S
C462        C463   1.372       .  D
C463        C464   1.547       .  S
C463       C3227   1.496       .  S
C464        C468   1.541       .  S
C464        C466   1.552       .  S
C464        H470   1.108       .  S
C465        H471   1.086       .  S
C465        C466   1.369       .  D
C466       C4325   1.491       .  S
C467        H472   1.086       .  S
C467        C468   1.365       .  D
C468       C3101   1.485       .  S
C473        C474   1.540       .  S
C473        C479   1.530       .  S
C473        C477   1.540       .  S
C473       C3044   1.522       .  S
C474        H481   1.085       .  S
C474        C475   1.376       .  D
C475        C476   1.550       .  S
C475       C3551   1.497       .  S
C476        C480   1.539       .  S
C476        C478   1.542       .  S
C476        H482   1.104       .  S
C477        H483   1.081       .  S
C477        C478   1.369       .  D
C478       C3155   1.491       .  S
C479        H484   1.086       .  S
C479        C480   1.360       .  D
C480       C3026   1.481       .  S
C485        C486   1.540       .  S
C485        C491   1.530       .  S
C485        C489   1.536       .  S
C485       C3134   1.524       .  S
C486        H493   1.085       .  S
C486        C487   1.374       .  D
C487        C488   1.553       .  S
C487       C3008   1.497       .  S
C488        C492   1.547       .  S
C488        C490   1.547       .  S
C488        H494   1.107       .  S
C489        H495   1.082       .  S
C489        C490   1.369       .  D
C490       C3083   1.495       .  S
C491        H496   1.085       .  S
C491        C492   1.363       .  D
C492       C3029   1.487       .  S
In497       O499   2.273       .  S
In497       O500   2.241       .  S
In497       O508   2.262       .  S
In497       O502   2.295       .  S
In497       O504   2.258       .  S
In497       O505   2.250       .  S
In497       O506   2.286       .  S
In497       O509   2.230       .  S
C498        O504   1.258       .  A
C498        O506   1.263       .  A
C498       C2972   1.483       .  S
O499        C507   1.263       .  A
O500        C507   1.259       .  A
C501        O508   1.254       .  A
C501        O502   1.261       .  A
C501       C2936   1.484       .  S
C503        O505   1.260       .  A
C503        O509   1.259       .  A
C503       C2954   1.460       .  S
C507       C2990   1.473       .  S
In510       O512   2.256       .  S
In510       O513   2.241       .  S
In510       O521   2.232       .  S
In510       O515   2.305       .  S
In510       O517   2.276       .  S
In510       O518   2.243       .  S
In510       O519   2.259       .  S
In510       O522   2.232       .  S
C511        O517   1.261       .  A
C511        O519   1.260       .  A
C511       C2900   1.482       .  S
O512        C520   1.264       .  A
O513        C520   1.259       .  A
C514        O521   1.253       .  A
C514        O515   1.264       .  A
C514       C3404   1.480       .  S
C516        O518   1.260       .  A
C516        O522   1.259       .  A
C516       C2918   1.461       .  S
C520       C2993   1.470       .  S
In523       O525   2.248       .  S
In523       O526   2.250       .  S
In523       O534   2.256       .  S
In523       O528   2.291       .  S
In523       O530   2.251       .  S
In523       O531   2.239       .  S
In523       O532   2.275       .  S
In523       O535   2.261       .  S
C524        O530   1.259       .  A
C524        O532   1.262       .  A
C524       C2975   1.479       .  S
O525        C533   1.258       .  A
O526        C533   1.258       .  A
C527        O534   1.254       .  A
C527        O528   1.260       .  A
C527       C2846   1.480       .  S
C529        O531   1.260       .  A
C529        O535   1.263       .  A
C529       C2882   1.470       .  S
C533       C2864   1.464       .  S
In536       O538   2.233       .  S
In536       O539   2.264       .  S
In536       O547   2.255       .  S
In536       O541   2.290       .  S
In536       O543   2.260       .  S
In536       O544   2.227       .  S
In536       O545   2.273       .  S
In536       O548   2.260       .  S
C537        O543   1.260       .  A
C537        O545   1.261       .  A
C537       C2828   1.481       .  S
O538        C546   1.258       .  A
O539        C546   1.259       .  A
C540        O547   1.255       .  A
C540        O541   1.262       .  A
C540       C3260   1.481       .  S
C542        O544   1.260       .  A
C542        O548   1.265       .  A
C542       C2885   1.468       .  S
C546       C2921   1.465       .  S
In549       O551   2.262       .  S
In549       O552   2.241       .  S
In549       O560   2.238       .  S
In549       O554   2.292       .  S
In549       O556   2.238       .  S
In549       O557   2.245       .  S
In549       O558   2.278       .  S
In549       O561   2.233       .  S
C550        O556   1.258       .  A
C550        O558   1.262       .  A
C550       C2792   1.474       .  S
O551        C559   1.263       .  A
O552        C559   1.259       .  A
C553        O560   1.253       .  A
C553        O554   1.261       .  A
C553       C2774   1.476       .  S
C555        O557   1.261       .  A
C555        O561   1.259       .  A
C555       C2867   1.461       .  S
C559       C2810   1.472       .  S
In562       O564   2.250       .  S
In562       O565   2.238       .  S
In562       O573   2.241       .  S
In562       O567   2.292       .  S
In562       O569   2.270       .  S
In562       O570   2.238       .  S
In562       O571   2.281       .  S
In562       O574   2.250       .  S
C563        O569   1.259       .  A
C563        O571   1.259       .  A
C563       C2831   1.484       .  S
O564        C572   1.266       .  A
O565        C572   1.262       .  A
C566        O573   1.254       .  A
C566        O567   1.263       .  A
C566       C4037   1.478       .  S
C568        O570   1.259       .  A
C568        O574   1.259       .  A
C568       C2756   1.464       .  S
C572       C2813   1.470       .  S
In575       O577   2.238       .  S
In575       O578   2.243       .  S
In575       O586   2.249       .  S
In575       O580   2.293       .  S
In575       O582   2.279       .  S
In575       O583   2.213       .  S
In575       O584   2.258       .  S
In575       O587   2.291       .  S
C576        O582   1.262       .  A
C576        O584   1.257       .  A
C576       C2903   1.481       .  S
O577        C585   1.260       .  A
O578        C585   1.259       .  A
C579        O586   1.254       .  A
C579        O580   1.262       .  A
C579       C3821   1.479       .  S
C581        O583   1.258       .  A
C581        O587   1.267       .  A
C581       C2738   1.476       .  S
C585       C2759   1.462       .  S
In588       O590   2.231       .  S
In588       O591   2.259       .  S
In588       O599   2.227       .  S
In588       O593   2.299       .  S
In588       O595   2.233       .  S
In588       O596   2.278       .  S
In588       O597   2.266       .  S
In588       O600   2.246       .  S
C589        O595   1.258       .  A
C589        O597   1.265       .  A
C589       C2795   1.472       .  S
O590        C598   1.255       .  A
O591        C598   1.258       .  A
C592        O599   1.257       .  A
C592        O593   1.266       .  A
C592       C2720   1.481       .  S
C594        O596   1.261       .  A
C594        O600   1.258       .  A
C594       C2741   1.475       .  S
C598       C2957   1.460       .  S
C601        C602   1.539       .  S
C601        C607   1.530       .  S
C601        C605   1.536       .  S
C601       C2684   1.520       .  S
C602        H609   1.081       .  S
C602        C603   1.370       .  D
C603        C604   1.549       .  S
C603       C2666   1.497       .  S
C604        C608   1.540       .  S
C604        C606   1.550       .  S
C604        H610   1.109       .  S
C605        H611   1.086       .  S
C605        C606   1.370       .  D
C606       C2849   1.488       .  S
C607        H612   1.086       .  S
C607        C608   1.364       .  D
C608       C2702   1.480       .  S
C613        C614   1.540       .  S
C613        C619   1.528       .  S
C613        C617   1.538       .  S
C613       C2630   1.522       .  S
C614        H621   1.083       .  S
C614        C615   1.369       .  D
C615        C616   1.547       .  S
C615       C2648   1.495       .  S
C616        C620   1.542       .  S
C616        C618   1.552       .  S
C616        H622   1.105       .  S
C617        H623   1.085       .  S
C617        C618   1.374       .  D
C618       C2612   1.498       .  S
C619        H624   1.085       .  S
C619        C620   1.362       .  D
C620       C2705   1.483       .  S
C625        C626   1.539       .  S
C625        C631   1.532       .  S
C625        C629   1.541       .  S
C625       C2687   1.523       .  S
C626        H633   1.085       .  S
C626        C627   1.372       .  D
C627        C628   1.549       .  S
C627       C4541   1.490       .  S
C628        C632   1.540       .  S
C628        C630   1.547       .  S
C628        H634   1.107       .  S
C629        H635   1.080       .  S
C629        C630   1.369       .  D
C630       C2576   1.498       .  S
C631        H636   1.086       .  S
C631        C632   1.362       .  D
C632       C2597   1.483       .  S
C637        C638   1.534       .  S
C637        C643   1.531       .  S
C637        C641   1.539       .  S
C637       C2558   1.518       .  S
C638        H645   1.085       .  S
C638        C639   1.372       .  D
C639        C640   1.555       .  S
C639       C2540   1.495       .  S
C640        C644   1.541       .  S
C640        C642   1.546       .  S
C640        H646   1.106       .  S
C641        H647   1.082       .  S
C641        C642   1.368       .  D
C642       C2651   1.495       .  S
C643        H648   1.086       .  S
C643        C644   1.363       .  D
C644       C2594   1.481       .  S
C649        C650   1.537       .  S
C649        C655   1.532       .  S
C649        C653   1.540       .  S
C649       C2561   1.523       .  S
C650        H657   1.081       .  S
C650        C651   1.368       .  D
C651        C652   1.544       .  S
C651       C2504   1.491       .  S
C652        C656   1.541       .  S
C652        C654   1.552       .  S
C652        H658   1.106       .  S
C653        H659   1.085       .  S
C653        C654   1.374       .  D
C654       C2486   1.496       .  S
C655        H660   1.085       .  S
C655        C656   1.362       .  D
C656       C2522   1.484       .  S
C661        C662   1.540       .  S
C661        C667   1.533       .  S
C661        C665   1.536       .  S
C661       C2471   1.521       .  S
C662        H669   1.081       .  S
C662        C663   1.368       .  D
C663        C664   1.547       .  S
C663       C2579   1.498       .  S
C664        C668   1.543       .  S
C664        C666   1.547       .  S
C664        H670   1.107       .  S
C665        H671   1.086       .  S
C665        C666   1.371       .  D
C666       C4451   1.485       .  S
C667        H672   1.085       .  S
C667        C668   1.365       .  D
C668       C2525   1.486       .  S
C673        C674   1.538       .  S
C673        C679   1.530       .  S
C673        C677   1.541       .  S
C673       C2432   1.518       .  S
C674        H681   1.085       .  S
C674        C675   1.372       .  D
C675        C676   1.548       .  S
C675       C2414   1.490       .  S
C676        C680   1.539       .  S
C676        C678   1.542       .  S
C676        H682   1.107       .  S
C677        H683   1.082       .  S
C677        C678   1.369       .  D
C678       C2507   1.491       .  S
C679        H684   1.086       .  S
C679        C680   1.361       .  D
C680       C2450   1.477       .  S
C685        C686   1.535       .  S
C685        C691   1.528       .  S
C685        C689   1.543       .  S
C685       C2468   1.518       .  S
C686        H693   1.085       .  S
C686        C687   1.369       .  D
C687        C688   1.549       .  S
C687       C3515   1.489       .  S
C688        C692   1.539       .  S
C688        C690   1.544       .  S
C688        H694   1.105       .  S
C689        H695   1.082       .  S
C689        C690   1.374       .  D
C690       C2396   1.495       .  S
C691        H696   1.085       .  S
C691        C692   1.361       .  D
C692       C2453   1.483       .  S
C697        C698   1.541       .  S
C697        C703   1.534       .  S
C697        C701   1.543       .  S
C697       C2633   1.525       .  S
C698        H705   1.085       .  S
C698        C699   1.374       .  D
C699        C700   1.547       .  S
C699       C2345   1.492       .  S
C700        C704   1.537       .  S
C700        C702   1.541       .  S
C700        H706   1.105       .  S
C701        H707   1.082       .  S
C701        C702   1.367       .  D
C702       C2360   1.491       .  S
C703        H708   1.086       .  S
C703        C704   1.363       .  D
C704       C2378   1.482       .  S
C709        C710   1.536       .  S
C709        C715   1.533       .  S
C709        C713   1.540       .  S
C709       C2324   1.519       .  S
C710        H717   1.086       .  S
C710        C711   1.370       .  D
C711        C712   1.545       .  S
C711       C2777   1.486       .  S
C712        C716   1.538       .  S
C712        C714   1.545       .  S
C712        H718   1.106       .  S
C713        H719   1.081       .  S
C713        C714   1.370       .  D
C714       C2669   1.495       .  S
C715        H720   1.086       .  S
C715        C716   1.364       .  D
C716       C2381   1.481       .  S
C721        C722   1.537       .  S
C721        C727   1.528       .  S
C721        C725   1.538       .  S
C721       C2327   1.518       .  S
C722        H729   1.081       .  S
C722        C723   1.367       .  D
C723        C724   1.545       .  S
C723       C2399   1.494       .  S
C724        C728   1.544       .  S
C724        C726   1.551       .  S
C724        H730   1.105       .  S
C725        H731   1.085       .  S
C725        C726   1.375       .  D
C726       C3731   1.497       .  S
C727        H732   1.086       .  S
C727        C728   1.361       .  D
C728       C2306   1.481       .  S
C733        C734   1.540       .  S
C733        C739   1.530       .  S
C733        C737   1.538       .  S
C733       C2435   1.521       .  S
C734        H741   1.082       .  S
C734        C735   1.366       .  D
C735        C736   1.543       .  S
C735       C2363   1.491       .  S
C736        C740   1.539       .  S
C736        C738   1.550       .  S
C736        H742   1.106       .  S
C737        H743   1.085       .  S
C737        C738   1.373       .  D
C738       C2288   1.491       .  S
C739        H744   1.086       .  S
C739        C740   1.363       .  D
C740       C2309   1.481       .  S
In745       O747   2.242       .  S
In745       O748   2.255       .  S
In745       O756   2.261       .  S
In745       O750   2.281       .  S
In745       O752   2.288       .  S
In745       O753   2.248       .  S
In745       O754   2.237       .  S
In745       O757   2.254       .  S
C746        O752   1.263       .  A
C746        O754   1.258       .  A
C746       C2252   1.477       .  S
O747        C755   1.259       .  A
O748        C755   1.259       .  A
C749        O756   1.255       .  A
C749        O750   1.259       .  A
C749       C3065   1.478       .  S
C751        O753   1.260       .  A
C751        O757   1.262       .  A
C751       C2270   1.471       .  S
C755       C2234   1.465       .  S
In758       O760   2.238       .  S
In758       O761   2.242       .  S
In758       O769   2.243       .  S
In758       O763   2.296       .  S
In758       O765   2.253       .  S
In758       O766   2.228       .  S
In758       O767   2.274       .  S
In758       O770   2.249       .  S
C759        O765   1.258       .  A
C759        O767   1.259       .  A
C759       C2198   1.476       .  S
O760        C768   1.258       .  A
O761        C768   1.258       .  A
C762        O769   1.254       .  A
C762        O763   1.262       .  A
C762       C2180   1.479       .  S
C764        O766   1.262       .  A
C764        O770   1.266       .  A
C764       C2273   1.468       .  S
C768       C2216   1.460       .  S
In771       O773   2.264       .  S
In771       O774   2.245       .  S
In771       O782   2.250       .  S
In771       O776   2.298       .  S
In771       O778   2.259       .  S
In771       O779   2.252       .  S
In771       O780   2.270       .  S
In771       O783   2.240       .  S
C772        O778   1.258       .  A
C772        O780   1.259       .  A
C772       C2144   1.476       .  S
O773        C781   1.265       .  A
O774        C781   1.262       .  A
C775        O782   1.255       .  A
C775        O776   1.262       .  A
C775       C3011   1.484       .  S
C777        O779   1.259       .  A
C777        O783   1.257       .  A
C777       C2237   1.463       .  S
C781       C2162   1.475       .  S
In784       O786   2.261       .  S
In784       O787   2.240       .  S
In784       O795   2.245       .  S
In784       O789   2.297       .  S
In784       O791   2.248       .  S
In784       O792   2.244       .  S
In784       O793   2.271       .  S
In784       O796   2.239       .  S
C785        O791   1.259       .  A
C785        O793   1.262       .  A
C785       C2201   1.476       .  S
O786        C794   1.263       .  A
O787        C794   1.260       .  A
C788        O795   1.253       .  A
C788        O789   1.261       .  A
C788       C2417   1.479       .  S
C790        O792   1.259       .  A
C790        O796   1.258       .  A
C790       C2126   1.460       .  S
C794       C2165   1.473       .  S
In797       O799   2.245       .  S
In797       O800   2.241       .  S
In797       O808   2.244       .  S
In797       O802   2.287       .  S
In797       O804   2.247       .  S
In797       O805   2.212       .  S
In797       O806   2.275       .  S
In797       O809   2.274       .  S
C798        O804   1.258       .  A
C798        O806   1.261       .  A
C798       C2147   1.476       .  S
O799        C807   1.260       .  A
O800        C807   1.258       .  A
C801        O808   1.255       .  A
C801        O802   1.261       .  A
C801       C3926   1.477       .  S
C803        O805   1.259       .  A
C803        O809   1.267       .  A
C803       C2108   1.471       .  S
C807       C2090   1.462       .  S
In810       O812   2.247       .  S
In810       O813   2.245       .  S
In810       O821   2.235       .  S
In810       O815   2.294       .  S
In810       O817   2.284       .  S
In810       O818   2.275       .  S
In810       O819   2.236       .  S
In810       O822   2.242       .  S
C811        O817   1.264       .  A
C811        O819   1.258       .  A
C811       C2072   1.479       .  S
O812        C820   1.256       .  A
O813        C820   1.256       .  A
C814        O821   1.257       .  A
C814        O815   1.266       .  A
C814       C2489   1.481       .  S
C816        O818   1.261       .  A
C816        O822   1.259       .  A
C816       C2111   1.473       .  S
C820       C2129   1.460       .  S
In823       O825   2.274       .  S
In823       O826   2.250       .  S
In823       O834   2.256       .  S
In823       O828   2.295       .  S
In823       O830   2.278       .  S
In823       O831   2.250       .  S
In823       O832   2.256       .  S
In823       O835   2.230       .  S
C824        O830   1.261       .  A
C824        O832   1.258       .  A
C824       C2255   1.479       .  S
O825        C833   1.263       .  A
O826        C833   1.259       .  A
C827        O834   1.256       .  A
C827        O828   1.261       .  A
C827       C4232   1.483       .  S
C829        O831   1.260       .  A
C829        O835   1.259       .  A
C829       C2093   1.461       .  S
C833       C2054   1.477       .  S
In836       O838   2.270       .  S
In836       O839   2.246       .  S
In836       O847   2.242       .  S
In836       O841   2.295       .  S
In836       O843   2.270       .  S
In836       O844   2.235       .  S
In836       O845   2.245       .  S
In836       O848   2.247       .  S
C837        O843   1.263       .  A
C837        O845   1.258       .  A
C837       C2075   1.476       .  S
O838        C846   1.265       .  A
O839        C846   1.260       .  A
C840        O847   1.254       .  A
C840        O841   1.260       .  A
C840       C2036   1.477       .  S
C842        O844   1.258       .  A
C842        O848   1.258       .  A
C842       C2219   1.459       .  S
C846       C2057   1.477       .  S
C849        C850   1.539       .  S
C849        C855   1.531       .  S
C849        C853   1.545       .  S
C849       C1982   1.521       .  S
C850        H857   1.085       .  S
C850        C851   1.372       .  D
C851        C852   1.546       .  S
C851       C2939   1.493       .  S
C852        C856   1.540       .  S
C852        C854   1.548       .  S
C852        H858   1.107       .  S
C853        H859   1.083       .  S
C853        C854   1.370       .  D
C854       C2000   1.497       .  S
C855        H860   1.086       .  S
C855        C856   1.360       .  D
C856       C2018   1.480       .  S
C861        C862   1.535       .  S
C861        C867   1.533       .  S
C861        C865   1.541       .  S
C861       C1946   1.522       .  S
C862        H869   1.085       .  S
C862        C863   1.370       .  D
C863        C864   1.548       .  S
C863       C1928   1.488       .  S
C864        C868   1.538       .  S
C864        C866   1.542       .  S
C864        H870   1.106       .  S
C865        H871   1.081       .  S
C865        C866   1.370       .  D
C866       C1964   1.495       .  S
C867        H872   1.086       .  S
C867        C868   1.364       .  D
C868       C2021   1.480       .  S
C873        C874   1.539       .  S
C873        C879   1.530       .  S
C873        C877   1.541       .  S
C873       C1985   1.528       .  S
C874        H881   1.078       .  S
C874        C875   1.365       .  D
C875        C876   1.543       .  S
C875       C1892   1.496       .  S
C876        C880   1.540       .  S
C876        C878   1.548       .  S
C876        H882   1.105       .  S
C877        H883   1.084       .  S
C877        C878   1.376       .  D
C878       C3677   1.492       .  S
C879        H884   1.085       .  S
C879        C880   1.363       .  D
C880       C1910   1.481       .  S
C885        C886   1.536       .  S
C885        C891   1.532       .  S
C885        C889   1.533       .  S
C885       C1874   1.520       .  S
C886        H893   1.080       .  S
C886        C887   1.369       .  D
C887        C888   1.550       .  S
C887       C1967   1.496       .  S
C888        C892   1.541       .  S
C888        C890   1.550       .  S
C888        H894   1.108       .  S
C889        H895   1.086       .  S
C889        C890   1.371       .  D
C890       C1859   1.490       .  S
C891        H896   1.085       .  S
C891        C892   1.363       .  D
C892       C1913   1.481       .  S
C897        C898   1.536       .  S
C897        C903   1.534       .  S
C897        C901   1.540       .  S
C897       C1877   1.520       .  S
C898        H905   1.085       .  S
C898        C899   1.370       .  D
C899        C900   1.544       .  S
C899       C2039   1.488       .  S
C900        C904   1.536       .  S
C900        C902   1.542       .  S
C900        H906   1.104       .  S
C901        H907   1.081       .  S
C901        C902   1.368       .  D
C902       C1820   1.489       .  S
C903        H908   1.086       .  S
C903        C904   1.364       .  D
C904       C1838   1.479       .  S
C909        C910   1.535       .  S
C909        C915   1.528       .  S
C909        C913   1.541       .  S
C909       C1802   1.518       .  S
C910        H917   1.085       .  S
C910        C911   1.368       .  D
C911        C912   1.546       .  S
C911       C3623   1.487       .  S
C912        C916   1.539       .  S
C912        C914   1.548       .  S
C912        H918   1.107       .  S
C913        H919   1.082       .  S
C913        C914   1.373       .  D
C914       C1895   1.496       .  S
C915        H920   1.085       .  S
C915        C916   1.360       .  D
C916       C1841   1.479       .  S
C921        C922   1.542       .  S
C921        C927   1.533       .  S
C921        C925   1.540       .  S
C921       C1805   1.523       .  S
C922        H929   1.080       .  S
C922        C923   1.366       .  D
C923        C924   1.540       .  S
C923       C1766   1.492       .  S
C924        C928   1.539       .  S
C924        C926   1.548       .  S
C924        H930   1.106       .  S
C925        H931   1.085       .  S
C925        C926   1.375       .  D
C926       C4307   1.496       .  S
C927        H932   1.086       .  S
C927        C928   1.362       .  D
C928       C1784   1.479       .  S
C933        C934   1.536       .  S
C933        C939   1.535       .  S
C933        C937   1.539       .  S
C933       C1748   1.518       .  S
C934        H941   1.080       .  S
C934        C935   1.365       .  D
C935        C936   1.543       .  S
C935       C1823   1.489       .  S
C936        C940   1.536       .  S
C936        C938   1.545       .  S
C936        H942   1.104       .  S
C937        H943   1.085       .  S
C937        C938   1.372       .  D
C938       C2183   1.490       .  S
C939        H944   1.085       .  S
C939        C940   1.365       .  D
C940       C1787   1.482       .  S
C945        C946   1.545       .  S
C945        C951   1.532       .  S
C945        C949   1.542       .  S
C945       C1715   1.529       .  S
C946        H953   1.083       .  S
C946        C947   1.372       .  D
C947        C948   1.547       .  S
C947       C2003   1.497       .  S
C948        C952   1.540       .  S
C948        C950   1.552       .  S
C948        H954   1.107       .  S
C949        H955   1.085       .  S
C949        C950   1.374       .  D
C950       C2723   1.497       .  S
C951        H956   1.086       .  S
C951        C952   1.360       .  D
C952       C1730   1.483       .  S
C957        C958   1.537       .  S
C957        C963   1.528       .  S
C957        C961   1.536       .  S
C957       C1949   1.520       .  S
C958        H965   1.082       .  S
C958        C959   1.366       .  D
C959        C960   1.548       .  S
C959       C1694   1.494       .  S
C960        C964   1.547       .  S
C960        C962   1.553       .  S
C960        H966   1.106       .  S
C961        H967   1.085       .  S
C961        C962   1.374       .  D
C962       C1676   1.497       .  S
C963        H968   1.085       .  S
C963        C964   1.364       .  D
C964       C1733   1.487       .  S
C969        C970   1.541       .  S
C969        C975   1.533       .  S
C969        C973   1.539       .  S
C969       C1712   1.529       .  S
C970        H977   1.085       .  S
C970        C971   1.374       .  D
C971        C972   1.547       .  S
C971       C4595   1.494       .  S
C972        C976   1.540       .  S
C972        C974   1.546       .  S
C972        H978   1.108       .  S
C973        H979   1.081       .  S
C973        C974   1.369       .  D
C974       C1769   1.495       .  S
C975        H980   1.085       .  S
C975        C976   1.365       .  D
C976       C1658   1.482       .  S
C981        C982   1.536       .  S
C981        C987   1.534       .  S
C981        C985   1.539       .  S
C981       C1751   1.517       .  S
C982        H989   1.086       .  S
C982        C983   1.369       .  D
C983        C984   1.549       .  S
C983       C1640   1.491       .  S
C984        C988   1.540       .  S
C984        C986   1.548       .  S
C984        H990   1.108       .  S
C985        H991   1.082       .  S
C985        C986   1.369       .  D
C986       C1697   1.492       .  S
C987        H992   1.086       .  S
C987        C988   1.362       .  D
C988       C1661   1.482       .  S
In993       O995   2.242       .  S
In993       O996   2.242       .  S
In993      O1004   2.256       .  S
In993       O998   2.293       .  S
In993      O1000   2.290       .  S
In993      O1001   2.282       .  S
In993      O1002   2.243       .  S
In993      O1005   2.236       .  S
C994       O1000   1.266       .  A
C994       O1002   1.258       .  A
C994       C1607   1.481       .  S
O995       C1003   1.259       .  A
O996       C1003   1.257       .  A
C997       O1004   1.257       .  A
C997        O998   1.263       .  A
C997       C3800   1.485       .  S
C999       O1001   1.264       .  A
C999       O1005   1.258       .  A
C999       C1622   1.475       .  S
C1003      C1586   1.460       .  S
In1006     O1008   2.247       .  S
In1006     O1009   2.241       .  S
In1006     O1017   2.233       .  S
In1006     O1011   2.302       .  S
In1006     O1013   2.267       .  S
In1006     O1014   2.227       .  S
In1006     O1015   2.268       .  S
In1006     O1018   2.284       .  S
C1007      O1013   1.261       .  A
C1007      O1015   1.260       .  A
C1007      C1550   1.481       .  S
O1008      C1016   1.259       .  A
O1009      C1016   1.258       .  A
C1010      O1017   1.255       .  A
C1010      O1011   1.264       .  A
C1010      C1679   1.481       .  S
C1012      O1014   1.258       .  A
C1012      O1018   1.266       .  A
C1012      C1625   1.477       .  S
C1016      C1568   1.464       .  S
In1019     O1021   2.281       .  S
In1019     O1022   2.236       .  S
In1019     O1030   2.224       .  S
In1019     O1024   2.303       .  S
In1019     O1026   2.287       .  S
In1019     O1027   2.242       .  S
In1019     O1028   2.234       .  S
In1019     O1031   2.239       .  S
C1020      O1026   1.265       .  A
C1020      O1028   1.257       .  A
C1020      C1604   1.479       .  S
O1021      C1029   1.263       .  A
O1022      C1029   1.258       .  A
C1023      O1030   1.256       .  A
C1023      O1024   1.266       .  A
C1023      C2543   1.480       .  S
C1025      O1027   1.258       .  A
C1025      O1031   1.259       .  A
C1025      C1514   1.461       .  S
C1029      C1532   1.475       .  S
In1032     O1034   2.289       .  S
In1032     O1035   2.231       .  S
In1032     O1043   2.251       .  S
In1032     O1037   2.300       .  S
In1032     O1039   2.277       .  S
In1032     O1040   2.258       .  S
In1032     O1041   2.253       .  S
In1032     O1044   2.237       .  S
C1033      O1039   1.262       .  A
C1033      O1041   1.258       .  A
C1033      C1496   1.478       .  S
O1034      C1042   1.266       .  A
O1035      C1042   1.259       .  A
C1036      O1043   1.256       .  A
C1036      O1037   1.261       .  A
C1036      C1643   1.484       .  S
C1038      O1040   1.259       .  A
C1038      O1044   1.258       .  A
C1038      C1571   1.465       .  S
C1042      C1535   1.480       .  S
In1045     O1047   2.244       .  S
In1045     O1048   2.249       .  S
In1045     O1056   2.238       .  S
In1045     O1050   2.298       .  S
In1045     O1052   2.279       .  S
In1045     O1053   2.264       .  S
In1045     O1054   2.240       .  S
In1045     O1057   2.229       .  S
C1046      O1052   1.262       .  A
C1046      O1054   1.260       .  A
C1046      C1460   1.477       .  S
O1047      C1055   1.260       .  A
O1048      C1055   1.257       .  A
C1049      O1056   1.256       .  A
C1049      O1050   1.263       .  A
C1049      C2615   1.481       .  S
C1051      O1053   1.264       .  A
C1051      O1057   1.259       .  A
C1051      C1478   1.469       .  S
C1055      C1517   1.463       .  S
In1058     O1060   2.246       .  S
In1058     O1061   2.238       .  S
In1058     O1069   2.239       .  S
In1058     O1063   2.277       .  S
In1058     O1065   2.272       .  S
In1058     O1066   2.232       .  S
In1058     O1067   2.250       .  S
In1058     O1070   2.268       .  S
C1059      O1065   1.260       .  A
C1059      O1067   1.257       .  A
C1059      C1499   1.476       .  S
O1060      C1068   1.260       .  A
O1061      C1068   1.260       .  A
C1062      O1069   1.255       .  A
C1062      O1063   1.262       .  A
C1062      C3296   1.472       .  S
C1064      O1066   1.259       .  A
C1064      O1070   1.264       .  A
C1064      C1481   1.472       .  S
C1068      C1445   1.464       .  S
In1071     O1073   2.279       .  S
In1071     O1074   2.213       .  S
In1071     O1082   2.236       .  S
In1071     O1076   2.281       .  S
In1071     O1078   2.278       .  S
In1071     O1079   2.232       .  S
In1071     O1080   2.225       .  S
In1071     O1083   2.231       .  S
C1072      O1078   1.264       .  A
C1072      O1080   1.257       .  A
C1072      C1463   1.473       .  S
O1073      C1081   1.265       .  A
O1074      C1081   1.257       .  A
C1075      O1082   1.255       .  A
C1075      O1076   1.264       .  A
C1075      C3857   1.475       .  S
C1077      O1079   1.258       .  A
C1077      O1083   1.260       .  A
C1077      C1589   1.456       .  S
C1081      C1427   1.469       .  S
In1084     O1086   2.265       .  S
In1084     O1087   2.223       .  S
In1084     O1095   2.245       .  S
In1084     O1089   2.282       .  S
In1084     O1091   2.269       .  S
In1084     O1092   2.242       .  S
In1084     O1093   2.254       .  S
In1084     O1096   2.245       .  S
C1085      O1091   1.260       .  A
C1085      O1093   1.257       .  A
C1085      C1553   1.476       .  S
O1086      C1094   1.266       .  A
O1087      C1094   1.260       .  A
C1088      O1095   1.256       .  A
C1088      O1089   1.263       .  A
C1088      C3188   1.478       .  S
C1090      O1092   1.258       .  A
C1090      O1096   1.258       .  A
C1090      C1442   1.462       .  S
C1094      C1424   1.471       .  S
In1097     O1099   2.224       .  S
In1097     O1100   2.248       .  S
In1097     O1108   2.235       .  S
In1097     O1102   2.291       .  S
In1097     O1104   2.273       .  S
In1097     O1105   2.270       .  S
In1097     O1106   2.264       .  S
In1097     O1109   2.236       .  S
C1098      O1104   1.260       .  A
C1098      O1106   1.258       .  A
C1098      C1388   1.479       .  S
O1099      C1107   1.257       .  A
O1100      C1107   1.260       .  A
C1101      O1108   1.254       .  A
C1101      O1102   1.262       .  A
C1101      C2291   1.476       .  S
C1103      O1105   1.266       .  A
C1103      O1109   1.259       .  A
C1103      C1406   1.474       .  S
C1107      C1373   1.459       .  S
In1110     O1112   2.243       .  S
In1110     O1113   2.257       .  S
In1110     O1121   2.255       .  S
In1110     O1115   2.291       .  S
In1110     O1117   2.269       .  S
In1110     O1118   2.254       .  S
In1110     O1119   2.256       .  S
In1110     O1122   2.253       .  S
C1111      O1117   1.262       .  A
C1111      O1119   1.259       .  A
C1111      C1334   1.477       .  S
O1112      C1120   1.257       .  A
O1113      C1120   1.258       .  A
C1114      O1121   1.255       .  A
C1114      O1115   1.259       .  A
C1114      C1856   1.480       .  S
C1116      O1118   1.261       .  A
C1116      O1122   1.262       .  A
C1116      C1409   1.473       .  S
C1120      C1352   1.466       .  S
In1123     O1125   2.265       .  S
In1123     O1126   2.244       .  S
In1123     O1134   2.246       .  S
In1123     O1128   2.290       .  S
In1123     O1130   2.276       .  S
In1123     O1131   2.246       .  S
In1123     O1132   2.250       .  S
In1123     O1135   2.229       .  S
C1124      O1130   1.261       .  A
C1124      O1132   1.258       .  A
C1124      C1298   1.477       .  S
O1125      C1133   1.264       .  A
O1126      C1133   1.259       .  A
C1127      O1134   1.255       .  A
C1127      O1128   1.261       .  A
C1127      C2342   1.479       .  S
C1129      O1131   1.260       .  A
C1129      O1135   1.258       .  A
C1129      C1370   1.459       .  S
C1133      C1316   1.472       .  S
In1136     O1138   2.260       .  S
In1136     O1139   2.246       .  S
In1136     O1147   2.246       .  S
In1136     O1141   2.291       .  S
In1136     O1143   2.268       .  S
In1136     O1144   2.257       .  S
In1136     O1145   2.251       .  S
In1136     O1148   2.234       .  S
C1137      O1143   1.261       .  A
C1137      O1145   1.259       .  A
C1137      C1337   1.476       .  S
O1138      C1146   1.264       .  A
O1139      C1146   1.260       .  A
C1140      O1147   1.256       .  A
C1140      O1141   1.262       .  A
C1140      C4001   1.481       .  S
C1142      O1144   1.259       .  A
C1142      O1148   1.258       .  A
C1142      C1280   1.464       .  S
C1146      C1319   1.474       .  S
In1149     O1151   2.244       .  S
In1149     O1152   2.245       .  S
In1149     O1160   2.261       .  S
In1149     O1154   2.289       .  S
In1149     O1156   2.285       .  S
In1149     O1157   2.260       .  S
In1149     O1158   2.247       .  S
In1149     O1161   2.267       .  S
C1150      O1156   1.262       .  A
C1150      O1158   1.258       .  A
C1150      C1301   1.479       .  S
O1151      C1159   1.258       .  A
O1152      C1159   1.259       .  A
C1153      O1160   1.257       .  A
C1153      O1154   1.260       .  A
C1153      C3119   1.484       .  S
C1155      O1157   1.260       .  A
C1155      O1161   1.264       .  A
C1155      C1262   1.478       .  S
C1159      C1244   1.462       .  S
In1162     O1164   2.238       .  S
In1162     O1165   2.249       .  S
In1162     O1173   2.263       .  S
In1162     O1167   2.282       .  S
In1162     O1169   2.284       .  S
In1162     O1170   2.274       .  S
In1162     O1171   2.260       .  S
In1162     O1174   2.237       .  S
C1163      O1169   1.263       .  A
C1163      O1171   1.259       .  A
C1163      C1229   1.484       .  S
O1164      C1172   1.258       .  A
O1165      C1172   1.260       .  A
C1166      O1173   1.254       .  A
C1166      O1167   1.260       .  A
C1166      C4127   1.480       .  S
C1168      O1170   1.265       .  A
C1168      O1174   1.259       .  A
C1168      C1265   1.476       .  S
C1172      C1283   1.463       .  S
In1175     O1177   2.261       .  S
In1175     O1178   2.239       .  S
In1175     O1186   2.244       .  S
In1175     O1180   2.288       .  S
In1175     O1182   2.262       .  S
In1175     O1183   2.250       .  S
In1175     O1184   2.268       .  S
In1175     O1187   2.230       .  S
C1176      O1182   1.261       .  A
C1176      O1184   1.259       .  A
C1176      C1391   1.479       .  S
O1177      C1185   1.264       .  A
O1178      C1185   1.260       .  A
C1179      O1186   1.254       .  A
C1179      O1180   1.262       .  A
C1179      C3350   1.477       .  S
C1181      O1183   1.260       .  A
C1181      O1187   1.258       .  A
C1181      C1247   1.461       .  S
C1185      C1208   1.471       .  S
In1188     O1190   2.272       .  S
In1188     O1191   2.235       .  S
In1188     O1199   2.231       .  S
In1188     O1193   2.302       .  S
In1188     O1195   2.288       .  S
In1188     O1196   2.251       .  S
In1188     O1197   2.250       .  S
In1188     O1200   2.243       .  S
C1189      O1195   1.264       .  A
C1189      O1197   1.259       .  A
C1189      C1226   1.484       .  S
O1190      C1198   1.263       .  A
O1191      C1198   1.257       .  A
C1192      O1199   1.252       .  A
C1192      O1193   1.262       .  A
C1192      C1931   1.476       .  S
C1194      O1196   1.261       .  A
C1194      O1200   1.260       .  A
C1194      C1355   1.467       .  S
C1198      C1211   1.471       .  S
C1201      C1206   1.385       .  A
C1201      C1202   1.404       .  A
C1201      N1207   1.346       .  A
C1202      C1203   1.404       .  A
C1202      H1213   1.082       .  S
C1203      C1212   1.377       .  A
C1203      C1204   1.385       .  A
C1204      C1205   1.404       .  A
C1204      N1210   1.346       .  A
C1205      C1206   1.404       .  A
C1205      H1214   1.082       .  S
C1206      C1209   1.378       .  A
N1207      C1208   1.355       .  A
N1207      H1217   1.045       .  S
C1208      C1209   1.395       .  A
C1209      H1215   1.082       .  S
N1210      C1211   1.355       .  A
N1210      H1218   1.045       .  S
C1211      C1212   1.396       .  A
C1212      H1216   1.083       .  S
C1219      C1224   1.384       .  A
C1219      C1220   1.405       .  A
C1219      N1225   1.345       .  A
C1220      C1221   1.404       .  A
C1220      H1231   1.082       .  S
C1221      C1230   1.381       .  A
C1221      C1222   1.384       .  A
C1222      C1223   1.412       .  A
C1222      N1228   1.350       .  A
C1223      C1224   1.411       .  A
C1223      H1232   1.082       .  S
C1224      C1227   1.389       .  A
N1225      C1226   1.356       .  A
N1225      H1235   1.045       .  S
C1226      C1227   1.400       .  A
C1227      H1233   1.082       .  S
N1228      C1229   1.359       .  A
N1228      H1236   1.045       .  S
C1229      C1230   1.397       .  A
C1230      H1234   1.083       .  S
C1237      C1242   1.386       .  A
C1237      C1238   1.401       .  A
C1237      N1243   1.342       .  A
C1238      C1239   1.400       .  A
C1238      H1249   1.083       .  S
C1239      C1248   1.373       .  A
C1239      C1240   1.386       .  A
C1240      C1241   1.401       .  A
C1240      N1246   1.343       .  A
C1241      C1242   1.401       .  A
C1241      H1250   1.082       .  S
C1242      C1245   1.375       .  A
N1243      C1244   1.354       .  A
N1243      H1253   1.045       .  S
C1244      C1245   1.392       .  A
C1245      H1251   1.082       .  S
N1246      C1247   1.354       .  A
N1246      H1254   1.045       .  S
C1247      C1248   1.392       .  A
C1248      H1252   1.083       .  S
C1255      C1260   1.384       .  A
C1255      C1256   1.409       .  A
C1255      N1261   1.348       .  A
C1256      C1257   1.408       .  A
C1256      H1267   1.082       .  S
C1257      C1266   1.385       .  A
C1257      C1258   1.384       .  A
C1258      C1259   1.405       .  A
C1258      N1264   1.343       .  A
C1259      C1260   1.403       .  A
C1259      H1268   1.082       .  S
C1260      C1263   1.381       .  A
N1261      C1262   1.358       .  A
N1261      H1271   1.045       .  S
C1262      C1263   1.395       .  A
C1263      H1269   1.082       .  S
N1264      C1265   1.356       .  A
N1264      H1272   1.045       .  S
C1265      C1266   1.397       .  A
C1266      H1270   1.082       .  S
C1273      C1278   1.385       .  A
C1273      C1274   1.404       .  A
C1273      N1279   1.344       .  A
C1274      C1275   1.403       .  A
C1274      H1285   1.082       .  S
C1275      C1284   1.378       .  A
C1275      C1276   1.385       .  A
C1276      C1277   1.399       .  A
C1276      N1282   1.340       .  A
C1277      C1278   1.398       .  A
C1277      H1286   1.083       .  S
C1278      C1281   1.372       .  A
N1279      C1280   1.355       .  A
N1279      H1289   1.045       .  S
C1280      C1281   1.391       .  A
C1281      H1287   1.083       .  S
N1282      C1283   1.353       .  A
N1282      H1290   1.045       .  S
C1283      C1284   1.394       .  A
C1284      H1288   1.082       .  S
C1291      C1296   1.384       .  A
C1291      C1292   1.410       .  A
C1291      N1297   1.349       .  A
C1292      C1293   1.409       .  A
C1292      H1303   1.082       .  S
C1293      C1302   1.387       .  A
C1293      C1294   1.384       .  A
C1294      C1295   1.403       .  A
C1294      N1300   1.343       .  A
C1295      C1296   1.402       .  A
C1295      H1304   1.082       .  S
C1296      C1299   1.378       .  A
N1297      C1298   1.358       .  A
N1297      H1307   1.045       .  S
C1298      C1299   1.395       .  A
C1299      H1305   1.083       .  S
N1300      C1301   1.355       .  A
N1300      H1308   1.045       .  S
C1301      C1302   1.400       .  A
C1302      H1306   1.082       .  S
C1309      C1314   1.385       .  A
C1309      C1310   1.405       .  A
C1309      N1315   1.345       .  A
C1310      C1311   1.404       .  A
C1310      H1321   1.082       .  S
C1311      C1320   1.381       .  A
C1311      C1312   1.384       .  A
C1312      C1313   1.406       .  A
C1312      N1318   1.345       .  A
C1313      C1314   1.405       .  A
C1313      H1322   1.082       .  S
C1314      C1317   1.382       .  A
N1315      C1316   1.356       .  A
N1315      H1325   1.045       .  S
C1316      C1317   1.395       .  A
C1317      H1323   1.082       .  S
N1318      C1319   1.357       .  A
N1318      H1326   1.045       .  S
C1319      C1320   1.394       .  A
C1320      H1324   1.082       .  S
C1327      C1332   1.384       .  A
C1327      C1328   1.404       .  A
C1327      N1333   1.345       .  A
C1328      C1329   1.404       .  A
C1328      H1339   1.082       .  S
C1329      C1338   1.379       .  A
C1329      C1330   1.384       .  A
C1330      C1331   1.407       .  A
C1330      N1336   1.347       .  A
C1331      C1332   1.407       .  A
C1331      H1340   1.082       .  S
C1332      C1335   1.383       .  A
N1333      C1334   1.356       .  A
N1333      H1343   1.045       .  S
C1334      C1335   1.397       .  A
C1335      H1341   1.082       .  S
N1336      C1337   1.357       .  A
N1336      H1344   1.045       .  S
C1337      C1338   1.395       .  A
C1338      H1342   1.083       .  S
C1345      C1350   1.385       .  A
C1345      C1346   1.404       .  A
C1345      N1351   1.344       .  A
C1346      C1347   1.403       .  A
C1346      H1357   1.082       .  S
C1347      C1356   1.379       .  A
C1347      C1348   1.385       .  A
C1348      C1349   1.401       .  A
C1348      N1354   1.342       .  A
C1349      C1350   1.400       .  A
C1349      H1358   1.082       .  S
C1350      C1353   1.375       .  A
N1351      C1352   1.355       .  A
N1351      H1361   1.045       .  S
C1352      C1353   1.393       .  A
C1353      H1359   1.082       .  S
N1354      C1355   1.354       .  A
N1354      H1362   1.045       .  S
C1355      C1356   1.394       .  A
C1356      H1360   1.082       .  S
C1363      C1368   1.386       .  A
C1363      C1364   1.398       .  A
C1363      N1369   1.339       .  A
C1364      C1365   1.397       .  A
C1364      H1375   1.083       .  S
C1365      C1374   1.371       .  A
C1365      C1366   1.385       .  A
C1366      C1367   1.402       .  A
C1366      N1372   1.342       .  A
C1367      C1368   1.402       .  A
C1367      H1376   1.082       .  S
C1368      C1371   1.377       .  A
N1369      C1370   1.352       .  A
N1369      H1379   1.045       .  S
C1370      C1371   1.393       .  A
C1371      H1377   1.082       .  S
N1372      C1373   1.354       .  A
N1372      H1380   1.045       .  S
C1373      C1374   1.391       .  A
C1374      H1378   1.083       .  S
C1381      C1386   1.384       .  A
C1381      C1382   1.405       .  A
C1381      N1387   1.346       .  A
C1382      C1383   1.404       .  A
C1382      H1393   1.082       .  S
C1383      C1392   1.380       .  A
C1383      C1384   1.384       .  A
C1384      C1385   1.408       .  A
C1384      N1390   1.348       .  A
C1385      C1386   1.408       .  A
C1385      H1394   1.082       .  S
C1386      C1389   1.383       .  A
N1387      C1388   1.356       .  A
N1387      H1397   1.045       .  S
C1388      C1389   1.398       .  A
C1389      H1395   1.082       .  S
N1390      C1391   1.358       .  A
N1390      H1398   1.045       .  S
C1391      C1392   1.395       .  A
C1392      H1396   1.082       .  S
C1399      C1404   1.385       .  A
C1399      C1400   1.404       .  A
C1399      N1405   1.344       .  A
C1400      C1401   1.402       .  A
C1400      H1411   1.082       .  S
C1401      C1410   1.379       .  A
C1401      C1402   1.384       .  A
C1402      C1403   1.407       .  A
C1402      N1408   1.346       .  A
C1403      C1404   1.406       .  A
C1403      H1412   1.082       .  S
C1404      C1407   1.383       .  A
N1405      C1406   1.356       .  A
N1405      H1415   1.045       .  S
C1406      C1407   1.396       .  A
C1407      H1413   1.082       .  S
N1408      C1409   1.357       .  A
N1408      H1416   1.045       .  S
C1409      C1410   1.394       .  A
C1410      H1414   1.082       .  S
C1417      C1422   1.385       .  A
C1417      C1418   1.399       .  A
C1417      N1423   1.340       .  A
C1418      C1419   1.398       .  A
C1418      H1429   1.083       .  S
C1419      C1428   1.371       .  A
C1419      C1420   1.384       .  A
C1420      C1421   1.408       .  A
C1420      N1426   1.348       .  A
C1421      C1422   1.408       .  A
C1421      H1430   1.082       .  S
C1422      C1425   1.385       .  A
N1423      C1424   1.354       .  A
N1423      H1433   1.045       .  S
C1424      C1425   1.397       .  A
C1425      H1431   1.082       .  S
N1426      C1427   1.357       .  A
N1426      H1434   1.045       .  S
C1427      C1428   1.392       .  A
C1428      H1432   1.083       .  S
C1435      C1440   1.386       .  A
C1435      C1436   1.401       .  A
C1435      N1441   1.341       .  A
C1436      C1437   1.400       .  A
C1436      H1447   1.082       .  S
C1437      C1446   1.375       .  A
C1437      C1438   1.386       .  A
C1438      C1439   1.403       .  A
C1438      N1444   1.343       .  A
C1439      C1440   1.401       .  A
C1439      H1448   1.082       .  S
C1440      C1443   1.377       .  A
N1441      C1442   1.353       .  A
N1441      H1451   1.045       .  S
C1442      C1443   1.393       .  A
C1443      H1449   1.082       .  S
N1444      C1445   1.355       .  A
N1444      H1452   1.045       .  S
C1445      C1446   1.392       .  A
C1446      H1450   1.083       .  S
C1453      C1458   1.384       .  A
C1453      C1454   1.411       .  A
C1453      N1459   1.350       .  A
C1454      C1455   1.411       .  A
C1454      H1465   1.082       .  S
C1455      C1464   1.387       .  A
C1455      C1456   1.385       .  A
C1456      C1457   1.400       .  A
C1456      N1462   1.341       .  A
C1457      C1458   1.399       .  A
C1457      H1466   1.083       .  S
C1458      C1461   1.374       .  A
N1459      C1460   1.360       .  A
N1459      H1469   1.045       .  S
C1460      C1461   1.392       .  A
C1461      H1467   1.083       .  S
N1462      C1463   1.354       .  A
N1462      H1470   1.045       .  S
C1463      C1464   1.399       .  A
C1464      H1468   1.082       .  S
C1471      C1476   1.385       .  A
C1471      C1472   1.407       .  A
C1471      N1477   1.346       .  A
C1472      C1473   1.406       .  A
C1472      H1483   1.082       .  S
C1473      C1482   1.383       .  A
C1473      C1474   1.385       .  A
C1474      C1475   1.402       .  A
C1474      N1480   1.341       .  A
C1475      C1476   1.400       .  A
C1475      H1484   1.083       .  S
C1476      C1479   1.376       .  A
N1477      C1478   1.356       .  A
N1477      H1487   1.045       .  S
C1478      C1479   1.393       .  A
C1479      H1485   1.083       .  S
N1480      C1481   1.355       .  A
N1480      H1488   1.045       .  S
C1481      C1482   1.397       .  A
C1482      H1486   1.082       .  S
C1489      C1494   1.384       .  A
C1489      C1490   1.408       .  A
C1489      N1495   1.348       .  A
C1490      C1491   1.407       .  A
C1490      H1501   1.082       .  S
C1491      C1500   1.384       .  A
C1491      C1492   1.385       .  A
C1492      C1493   1.404       .  A
C1492      N1498   1.344       .  A
C1493      C1494   1.403       .  A
C1493      H1502   1.082       .  S
C1494      C1497   1.380       .  A
N1495      C1496   1.357       .  A
N1495      H1505   1.045       .  S
C1496      C1497   1.396       .  A
C1497      H1503   1.083       .  S
N1498      C1499   1.356       .  A
N1498      H1506   1.045       .  S
C1499      C1500   1.397       .  A
C1500      H1504   1.082       .  S
C1507      C1512   1.386       .  A
C1507      C1508   1.399       .  A
C1507      N1513   1.340       .  A
C1508      C1509   1.398       .  A
C1508      H1519   1.082       .  S
C1509      C1518   1.373       .  A
C1509      C1510   1.385       .  A
C1510      C1511   1.403       .  A
C1510      N1516   1.343       .  A
C1511      C1512   1.402       .  A
C1511      H1520   1.082       .  S
C1512      C1515   1.377       .  A
N1513      C1514   1.352       .  A
N1513      H1523   1.045       .  S
C1514      C1515   1.394       .  A
C1515      H1521   1.082       .  S
N1516      C1517   1.356       .  A
N1516      H1524   1.045       .  S
C1517      C1518   1.391       .  A
C1518      H1522   1.082       .  S
C1525      C1530   1.384       .  A
C1525      C1526   1.412       .  A
C1525      N1531   1.350       .  A
C1526      C1527   1.411       .  A
C1526      H1537   1.082       .  S
C1527      C1536   1.390       .  A
C1527      C1528   1.384       .  A
C1528      C1529   1.401       .  A
C1528      N1534   1.341       .  A
C1529      C1530   1.400       .  A
C1529      H1538   1.082       .  S
C1530      C1533   1.376       .  A
N1531      C1532   1.359       .  A
N1531      H1541   1.045       .  S
C1532      C1533   1.393       .  A
C1533      H1539   1.083       .  S
N1534      C1535   1.355       .  A
N1534      H1542   1.045       .  S
C1535      C1536   1.401       .  A
C1536      H1540   1.082       .  S
C1543      C1548   1.384       .  A
C1543      C1544   1.407       .  A
C1543      N1549   1.346       .  A
C1544      C1545   1.406       .  A
C1544      H1555   1.082       .  S
C1545      C1554   1.383       .  A
C1545      C1546   1.384       .  A
C1546      C1547   1.407       .  A
C1546      N1552   1.346       .  A
C1547      C1548   1.406       .  A
C1547      H1556   1.082       .  S
C1548      C1551   1.383       .  A
N1549      C1550   1.357       .  A
N1549      H1559   1.045       .  S
C1550      C1551   1.398       .  A
C1551      H1557   1.082       .  S
N1552      C1553   1.357       .  A
N1552      H1560   1.045       .  S
C1553      C1554   1.397       .  A
C1554      H1558   1.082       .  S
C1561      C1566   1.385       .  A
C1561      C1562   1.400       .  A
C1561      N1567   1.342       .  A
C1562      C1563   1.399       .  A
C1562      H1573   1.082       .  S
C1563      C1572   1.373       .  A
C1563      C1564   1.385       .  A
C1564      C1565   1.403       .  A
C1564      N1570   1.345       .  A
C1565      C1566   1.403       .  A
C1565      H1574   1.082       .  S
C1566      C1569   1.377       .  A
N1567      C1568   1.353       .  A
N1567      H1577   1.045       .  S
C1568      C1569   1.394       .  A
C1569      H1575   1.082       .  S
N1570      C1571   1.356       .  A
N1570      H1578   1.045       .  S
C1571      C1572   1.391       .  A
C1572      H1576   1.082       .  S
C1579      C1584   1.386       .  A
C1579      C1580   1.399       .  A
C1579      N1585   1.340       .  A
C1580      C1581   1.398       .  A
C1580      H1591   1.082       .  S
C1581      C1590   1.373       .  A
C1581      C1582   1.386       .  A
C1582      C1583   1.401       .  A
C1582      N1588   1.340       .  A
C1583      C1584   1.400       .  A
C1583      H1592   1.082       .  S
C1584      C1587   1.376       .  A
N1585      C1586   1.352       .  A
N1585      H1595   1.045       .  S
C1586      C1587   1.393       .  A
C1587      H1593   1.082       .  S
N1588      C1589   1.353       .  A
N1588      H1596   1.045       .  S
C1589      C1590   1.390       .  A
C1590      H1594   1.082       .  S
C1597      C1602   1.383       .  A
C1597      C1598   1.412       .  A
C1597      N1603   1.351       .  A
C1598      C1599   1.412       .  A
C1598      H1609   1.082       .  S
C1599      C1608   1.389       .  A
C1599      C1600   1.384       .  A
C1600      C1601   1.403       .  A
C1600      N1606   1.344       .  A
C1601      C1602   1.402       .  A
C1601      H1610   1.082       .  S
C1602      C1605   1.377       .  A
N1603      C1604   1.360       .  A
N1603      H1613   1.045       .  S
C1604      C1605   1.395       .  A
C1605      H1611   1.083       .  S
N1606      C1607   1.355       .  A
N1606      H1614   1.045       .  S
C1607      C1608   1.401       .  A
C1608      H1612   1.082       .  S
C1615      C1620   1.384       .  A
C1615      C1616   1.401       .  A
C1615      N1621   1.342       .  A
C1616      C1617   1.401       .  A
C1616      H1627   1.083       .  S
C1617      C1626   1.375       .  A
C1617      C1618   1.384       .  A
C1618      C1619   1.410       .  A
C1618      N1624   1.350       .  A
C1619      C1620   1.410       .  A
C1619      H1628   1.082       .  S
C1620      C1623   1.387       .  A
N1621      C1622   1.354       .  A
N1621      H1631   1.045       .  S
C1622      C1623   1.399       .  A
C1623      H1629   1.082       .  S
N1624      C1625   1.358       .  A
N1624      H1632   1.045       .  S
C1625      C1626   1.394       .  A
C1626      H1630   1.083       .  S
C1633      C1638   1.383       .  A
C1633      C1634   1.404       .  A
C1633      N1639   1.346       .  A
C1634      C1635   1.404       .  A
C1634      H1645   1.082       .  S
C1635      C1644   1.378       .  A
C1635      C1636   1.384       .  A
C1636      C1637   1.411       .  A
C1636      N1642   1.352       .  A
C1637      C1638   1.411       .  A
C1637      H1646   1.082       .  S
C1638      C1641   1.384       .  A
N1639      C1640   1.356       .  A
N1639      H1649   1.044       .  S
C1640      C1641   1.402       .  A
C1641      H1647   1.082       .  S
N1642      C1643   1.360       .  A
N1642      H1650   1.045       .  S
C1643      C1644   1.396       .  A
C1644      H1648   1.082       .  S
C1651      C1656   1.383       .  A
C1651      C1652   1.404       .  A
C1651      N1657   1.341       .  A
C1652      C1653   1.402       .  A
C1652      H1663   1.082       .  S
C1653      C1662   1.380       .  A
C1653      C1654   1.383       .  A
C1654      C1655   1.405       .  A
C1654      N1660   1.342       .  A
C1655      C1656   1.403       .  A
C1655      H1664   1.082       .  S
C1656      C1659   1.380       .  A
N1657      C1658   1.358       .  A
N1657      H1667   1.044       .  S
C1658      C1659   1.396       .  A
C1659      H1665   1.082       .  S
N1660      C1661   1.358       .  A
N1660      H1668   1.044       .  S
C1661      C1662   1.395       .  A
C1662      H1666   1.082       .  S
C1669      C1674   1.382       .  A
C1669      C1670   1.404       .  A
C1669      N1675   1.347       .  A
C1670      C1671   1.405       .  A
C1670      H1681   1.082       .  S
C1671      C1680   1.376       .  A
C1671      C1672   1.384       .  A
C1672      C1673   1.409       .  A
C1672      N1678   1.351       .  A
C1673      C1674   1.410       .  A
C1673      H1682   1.082       .  S
C1674      C1677   1.382       .  A
N1675      C1676   1.359       .  A
N1675      H1685   1.043       .  S
C1676      C1677   1.403       .  A
C1677      H1683   1.082       .  S
N1678      C1679   1.358       .  A
N1678      H1686   1.045       .  S
C1679      C1680   1.396       .  A
C1680      H1684   1.083       .  S
C1687      C1692   1.383       .  A
C1687      C1688   1.408       .  A
C1687      N1693   1.349       .  A
C1688      C1689   1.408       .  A
C1688      H1699   1.082       .  S
C1689      C1698   1.383       .  A
C1689      C1690   1.383       .  A
C1690      C1691   1.405       .  A
C1690      N1696   1.345       .  A
C1691      C1692   1.405       .  A
C1691      H1700   1.083       .  S
C1692      C1695   1.377       .  A
N1693      C1694   1.359       .  A
N1693      H1703   1.044       .  S
C1694      C1695   1.401       .  A
C1695      H1701   1.082       .  S
N1696      C1697   1.359       .  A
N1696      H1704   1.044       .  S
C1697      C1698   1.399       .  A
C1698      H1702   1.081       .  S
C1705      C1710   1.381       .  A
C1705      C1706   1.408       .  A
C1705      N1711   1.348       .  A
C1706      C1707   1.408       .  A
C1706      H1717   1.082       .  S
C1707      C1716   1.382       .  A
C1707      C1708   1.382       .  A
C1708      C1709   1.408       .  A
C1708      N1714   1.349       .  A
C1709      C1710   1.408       .  A
C1709      H1718   1.082       .  S
C1710      C1713   1.383       .  A
N1711      C1712   1.360       .  A
N1711      H1721   1.045       .  S
C1712      C1713   1.404       .  A
C1713      H1719   1.080       .  S
N1714      C1715   1.361       .  A
N1714      H1722   1.043       .  S
C1715      C1716   1.402       .  A
C1716      H1720   1.082       .  S
C1723      C1728   1.383       .  A
C1723      C1724   1.405       .  A
C1723      N1729   1.341       .  A
C1724      C1725   1.402       .  A
C1724      H1735   1.082       .  S
C1725      C1734   1.383       .  A
C1725      C1726   1.383       .  A
C1726      C1727   1.407       .  A
C1726      N1732   1.342       .  A
C1727      C1728   1.404       .  A
C1727      H1736   1.082       .  S
C1728      C1731   1.384       .  A
N1729      C1730   1.358       .  A
N1729      H1739   1.044       .  S
C1730      C1731   1.396       .  A
C1731      H1737   1.082       .  S
N1732      C1733   1.360       .  A
N1732      H1740   1.044       .  S
C1733      C1734   1.396       .  A
C1734      H1738   1.082       .  S
C1741      C1746   1.383       .  A
C1741      C1742   1.403       .  A
C1741      N1747   1.344       .  A
C1742      C1743   1.403       .  A
C1742      H1753   1.082       .  S
C1743      C1752   1.376       .  A
C1743      C1744   1.383       .  A
C1744      C1745   1.405       .  A
C1744      N1750   1.346       .  A
C1745      C1746   1.405       .  A
C1745      H1754   1.083       .  S
C1746      C1749   1.378       .  A
N1747      C1748   1.356       .  A
N1747      H1757   1.045       .  S
C1748      C1749   1.403       .  A
C1749      H1755   1.080       .  S
N1750      C1751   1.360       .  A
N1750      H1758   1.043       .  S
C1751      C1752   1.397       .  A
C1752      H1756   1.082       .  S
C1759      C1764   1.382       .  A
C1759      C1760   1.403       .  A
C1759      N1765   1.343       .  A
C1760      C1761   1.402       .  A
C1760      H1771   1.082       .  S
C1761      C1770   1.376       .  A
C1761      C1762   1.382       .  A
C1762      C1763   1.409       .  A
C1762      N1768   1.349       .  A
C1763      C1764   1.409       .  A
C1763      H1772   1.082       .  S
C1764      C1767   1.383       .  A
N1765      C1766   1.358       .  A
N1765      H1775   1.044       .  S
C1766      C1767   1.400       .  A
C1767      H1773   1.081       .  S
N1768      C1769   1.360       .  A
N1768      H1776   1.044       .  S
C1769      C1770   1.399       .  A
C1770      H1774   1.081       .  S
C1777      C1782   1.384       .  A
C1777      C1778   1.405       .  A
C1777      N1783   1.344       .  A
C1778      C1779   1.404       .  A
C1778      H1789   1.082       .  S
C1779      C1788   1.380       .  A
C1779      C1780   1.384       .  A
C1780      C1781   1.401       .  A
C1780      N1786   1.341       .  A
C1781      C1782   1.400       .  A
C1781      H1790   1.082       .  S
C1782      C1785   1.376       .  A
N1783      C1784   1.358       .  A
N1783      H1793   1.044       .  S
C1784      C1785   1.393       .  A
C1785      H1791   1.082       .  S
N1786      C1787   1.356       .  A
N1786      H1794   1.044       .  S
C1787      C1788   1.397       .  A
C1788      H1792   1.082       .  S
C1795      C1800   1.383       .  A
C1795      C1796   1.403       .  A
C1795      N1801   1.346       .  A
C1796      C1797   1.404       .  A
C1796      H1807   1.082       .  S
C1797      C1806   1.375       .  A
C1797      C1798   1.382       .  A
C1798      C1799   1.406       .  A
C1798      N1804   1.347       .  A
C1799      C1800   1.407       .  A
C1799      H1808   1.082       .  S
C1800      C1803   1.378       .  A
N1801      C1802   1.358       .  A
N1801      H1811   1.043       .  S
C1802      C1803   1.400       .  A
C1803      H1809   1.082       .  S
N1804      C1805   1.359       .  A
N1804      H1812   1.045       .  S
C1805      C1806   1.402       .  A
C1806      H1810   1.080       .  S
C1813      C1818   1.382       .  A
C1813      C1814   1.406       .  A
C1813      N1819   1.345       .  A
C1814      C1815   1.405       .  A
C1814      H1825   1.082       .  S
C1815      C1824   1.380       .  A
C1815      C1816   1.382       .  A
C1816      C1817   1.403       .  A
C1816      N1822   1.342       .  A
C1817      C1818   1.402       .  A
C1817      H1826   1.082       .  S
C1818      C1821   1.376       .  A
N1819      C1820   1.359       .  A
N1819      H1829   1.043       .  S
C1820      C1821   1.399       .  A
C1821      H1827   1.082       .  S
N1822      C1823   1.359       .  A
N1822      H1830   1.043       .  S
C1823      C1824   1.399       .  A
C1824      H1828   1.081       .  S
C1831      C1836   1.384       .  A
C1831      C1832   1.403       .  A
C1831      N1837   1.340       .  A
C1832      C1833   1.400       .  A
C1832      H1843   1.082       .  S
C1833      C1842   1.380       .  A
C1833      C1834   1.383       .  A
C1834      C1835   1.403       .  A
C1834      N1840   1.339       .  A
C1835      C1836   1.401       .  A
C1835      H1844   1.083       .  S
C1836      C1839   1.379       .  A
N1837      C1838   1.356       .  A
N1837      H1847   1.044       .  S
C1838      C1839   1.395       .  A
C1839      H1845   1.082       .  S
N1840      C1841   1.357       .  A
N1840      H1848   1.044       .  S
C1841      C1842   1.395       .  A
C1842      H1846   1.082       .  S
C1849      C1854   1.384       .  A
C1849      C1850   1.407       .  A
C1849      N1855   1.349       .  A
C1850      C1851   1.407       .  A
C1850      H1861   1.082       .  S
C1851      C1860   1.381       .  A
C1851      C1852   1.383       .  A
C1852      C1853   1.406       .  A
C1852      N1858   1.348       .  A
C1853      C1854   1.406       .  A
C1853      H1862   1.082       .  S
C1854      C1857   1.379       .  A
N1855      C1856   1.358       .  A
N1855      H1865   1.045       .  S
C1856      C1857   1.397       .  A
C1857      H1863   1.082       .  S
N1858      C1859   1.358       .  A
N1858      H1866   1.044       .  S
C1859      C1860   1.399       .  A
C1860      H1864   1.082       .  S
C1867      C1872   1.383       .  A
C1867      C1868   1.406       .  A
C1867      N1873   1.344       .  A
C1868      C1869   1.404       .  A
C1868      H1879   1.082       .  S
C1869      C1878   1.379       .  A
C1869      C1870   1.383       .  A
C1870      C1871   1.404       .  A
C1870      N1876   1.344       .  A
C1871      C1872   1.403       .  A
C1871      H1880   1.082       .  S
C1872      C1875   1.378       .  A
N1873      C1874   1.358       .  A
N1873      H1883   1.045       .  S
C1874      C1875   1.401       .  A
C1875      H1881   1.080       .  S
N1876      C1877   1.359       .  A
N1876      H1884   1.042       .  S
C1877      C1878   1.399       .  A
C1878      H1882   1.082       .  S
C1885      C1890   1.382       .  A
C1885      C1886   1.409       .  A
C1885      N1891   1.350       .  A
C1886      C1887   1.410       .  A
C1886      H1897   1.082       .  S
C1887      C1896   1.384       .  A
C1887      C1888   1.382       .  A
C1888      C1889   1.404       .  A
C1888      N1894   1.345       .  A
C1889      C1890   1.403       .  A
C1889      H1898   1.082       .  S
C1890      C1893   1.375       .  A
N1891      C1892   1.360       .  A
N1891      H1901   1.044       .  S
C1892      C1893   1.401       .  A
C1893      H1899   1.081       .  S
N1894      C1895   1.359       .  A
N1894      H1902   1.044       .  S
C1895      C1896   1.402       .  A
C1896      H1900   1.081       .  S
C1903      C1908   1.384       .  A
C1903      C1904   1.404       .  A
C1903      N1909   1.340       .  A
C1904      C1905   1.401       .  A
C1904      H1915   1.082       .  S
C1905      C1914   1.380       .  A
C1905      C1906   1.383       .  A
C1906      C1907   1.404       .  A
C1906      N1912   1.341       .  A
C1907      C1908   1.402       .  A
C1907      H1916   1.082       .  S
C1908      C1911   1.381       .  A
N1909      C1910   1.357       .  A
N1909      H1919   1.044       .  S
C1910      C1911   1.396       .  A
C1911      H1917   1.082       .  S
N1912      C1913   1.358       .  A
N1912      H1920   1.044       .  S
C1913      C1914   1.395       .  A
C1914      H1918   1.082       .  S
C1921      C1926   1.383       .  A
C1921      C1922   1.401       .  A
C1921      N1927   1.344       .  A
C1922      C1923   1.402       .  A
C1922      H1933   1.082       .  S
C1923      C1932   1.374       .  A
C1923      C1924   1.384       .  A
C1924      C1925   1.408       .  A
C1924      N1930   1.350       .  A
C1925      C1926   1.409       .  A
C1925      H1934   1.082       .  S
C1926      C1929   1.382       .  A
N1927      C1928   1.356       .  A
N1927      H1937   1.044       .  S
C1928      C1929   1.401       .  A
C1929      H1935   1.082       .  S
N1930      C1931   1.358       .  A
N1930      H1938   1.045       .  S
C1931      C1932   1.395       .  A
C1932      H1936   1.083       .  S
C1939      C1944   1.383       .  A
C1939      C1940   1.403       .  A
C1939      N1945   1.343       .  A
C1940      C1941   1.402       .  A
C1940      H1951   1.083       .  S
C1941      C1950   1.376       .  A
C1941      C1942   1.382       .  A
C1942      C1943   1.408       .  A
C1942      N1948   1.347       .  A
C1943      C1944   1.408       .  A
C1943      H1952   1.082       .  S
C1944      C1947   1.382       .  A
N1945      C1946   1.359       .  A
N1945      H1955   1.042       .  S
C1946      C1947   1.401       .  A
C1947      H1953   1.082       .  S
N1948      C1949   1.359       .  A
N1948      H1956   1.045       .  S
C1949      C1950   1.400       .  A
C1950      H1954   1.081       .  S
C1957      C1962   1.382       .  A
C1957      C1958   1.411       .  A
C1957      N1963   1.349       .  A
C1958      C1959   1.411       .  A
C1958      H1969   1.082       .  S
C1959      C1968   1.388       .  A
C1959      C1960   1.382       .  A
C1960      C1961   1.402       .  A
C1960      N1966   1.341       .  A
C1961      C1962   1.401       .  A
C1961      H1970   1.082       .  S
C1962      C1965   1.375       .  A
N1963      C1964   1.361       .  A
N1963      H1973   1.044       .  S
C1964      C1965   1.398       .  A
C1965      H1971   1.081       .  S
N1966      C1967   1.359       .  A
N1966      H1974   1.043       .  S
C1967      C1968   1.402       .  A
C1968      H1972   1.082       .  S
C1975      C1980   1.382       .  A
C1975      C1976   1.410       .  A
C1975      N1981   1.346       .  A
C1976      C1977   1.408       .  A
C1976      H1987   1.082       .  S
C1977      C1986   1.386       .  A
C1977      C1978   1.381       .  A
C1978      C1979   1.404       .  A
C1978      N1984   1.342       .  A
C1979      C1980   1.401       .  A
C1979      H1988   1.082       .  S
C1980      C1983   1.380       .  A
N1981      C1982   1.360       .  A
N1981      H1991   1.045       .  S
C1982      C1983   1.399       .  A
C1983      H1989   1.081       .  S
N1984      C1985   1.361       .  A
N1984      H1992   1.042       .  S
C1985      C1986   1.403       .  A
C1986      H1990   1.082       .  S
C1993      C1998   1.382       .  A
C1993      C1994   1.410       .  A
C1993      N1999   1.349       .  A
C1994      C1995   1.409       .  A
C1994      H2005   1.082       .  S
C1995      C2004   1.385       .  A
C1995      C1996   1.383       .  A
C1996      C1997   1.407       .  A
C1996      N2002   1.347       .  A
C1997      C1998   1.406       .  A
C1997      H2006   1.082       .  S
C1998      C2001   1.383       .  A
N1999      C2000   1.361       .  A
N1999      H2009   1.044       .  S
C2000      C2001   1.399       .  A
C2001      H2007   1.082       .  S
N2002      C2003   1.358       .  A
N2002      H2010   1.044       .  S
C2003      C2004   1.402       .  A
C2004      H2008   1.082       .  S
C2011      C2016   1.383       .  A
C2011      C2012   1.405       .  A
C2011      N2017   1.343       .  A
C2012      C2013   1.404       .  A
C2012      H2023   1.082       .  S
C2013      C2022   1.380       .  A
C2013      C2014   1.384       .  A
C2014      C2015   1.401       .  A
C2014      N2020   1.340       .  A
C2015      C2016   1.399       .  A
C2015      H2024   1.082       .  S
C2016      C2019   1.376       .  A
N2017      C2018   1.359       .  A
N2017      H2027   1.044       .  S
C2018      C2019   1.393       .  A
C2019      H2025   1.082       .  S
N2020      C2021   1.356       .  A
N2020      H2028   1.044       .  S
C2021      C2022   1.397       .  A
C2022      H2026   1.082       .  S
C2029      C2034   1.384       .  A
C2029      C2030   1.409       .  A
C2029      N2035   1.349       .  A
C2030      C2031   1.408       .  A
C2030      H2041   1.082       .  S
C2031      C2040   1.382       .  A
C2031      C2032   1.383       .  A
C2032      C2033   1.401       .  A
C2032      N2038   1.342       .  A
C2033      C2034   1.401       .  A
C2033      H2042   1.082       .  S
C2034      C2037   1.375       .  A
N2035      C2036   1.358       .  A
N2035      H2045   1.044       .  S
C2036      C2037   1.394       .  A
C2037      H2043   1.083       .  S
N2038      C2039   1.357       .  A
N2038      H2046   1.043       .  S
C2039      C2040   1.401       .  A
C2040      H2044   1.082       .  S
C2047      C2052   1.384       .  A
C2047      C2048   1.407       .  A
C2047      N2053   1.345       .  A
C2048      C2049   1.405       .  A
C2048      H2059   1.082       .  S
C2049      C2058   1.383       .  A
C2049      C2050   1.384       .  A
C2050      C2051   1.407       .  A
C2050      N2056   1.346       .  A
C2051      C2052   1.406       .  A
C2051      H2060   1.082       .  S
C2052      C2055   1.384       .  A
N2053      C2054   1.357       .  A
N2053      H2063   1.045       .  S
C2054      C2055   1.397       .  A
C2055      H2061   1.082       .  S
N2056      C2057   1.357       .  A
N2056      H2064   1.045       .  S
C2057      C2058   1.396       .  A
C2058      H2062   1.082       .  S
C2065      C2070   1.384       .  A
C2065      C2066   1.410       .  A
C2065      N2071   1.350       .  A
C2066      C2067   1.409       .  A
C2066      H2077   1.082       .  S
C2067      C2076   1.385       .  A
C2067      C2068   1.384       .  A
C2068      C2069   1.403       .  A
C2068      N2074   1.344       .  A
C2069      C2070   1.403       .  A
C2069      H2078   1.082       .  S
C2070      C2073   1.377       .  A
N2071      C2072   1.359       .  A
N2071      H2081   1.045       .  S
C2072      C2073   1.395       .  A
C2073      H2079   1.083       .  S
N2074      C2075   1.356       .  A
N2074      H2082   1.045       .  S
C2075      C2076   1.398       .  A
C2076      H2080   1.082       .  S
C2083      C2088   1.386       .  A
C2083      C2084   1.399       .  A
C2083      N2089   1.341       .  A
C2084      C2085   1.398       .  A
C2084      H2095   1.082       .  S
C2085      C2094   1.372       .  A
C2085      C2086   1.385       .  A
C2086      C2087   1.402       .  A
C2086      N2092   1.343       .  A
C2087      C2088   1.402       .  A
C2087      H2096   1.082       .  S
C2088      C2091   1.376       .  A
N2089      C2090   1.353       .  A
N2089      H2099   1.045       .  S
C2090      C2091   1.394       .  A
C2091      H2097   1.082       .  S
N2092      C2093   1.355       .  A
N2092      H2100   1.045       .  S
C2093      C2094   1.391       .  A
C2094      H2098   1.083       .  S
C2101      C2106   1.385       .  A
C2101      C2102   1.409       .  A
C2101      N2107   1.350       .  A
C2102      C2103   1.410       .  A
C2102      H2113   1.082       .  S
C2103      C2112   1.386       .  A
C2103      C2104   1.385       .  A
C2104      C2105   1.399       .  A
C2104      N2110   1.341       .  A
C2105      C2106   1.398       .  A
C2105      H2114   1.083       .  S
C2106      C2109   1.371       .  A
N2107      C2108   1.358       .  A
N2107      H2117   1.044       .  S
C2108      C2109   1.392       .  A
C2109      H2115   1.083       .  S
N2110      C2111   1.353       .  A
N2110      H2118   1.045       .  S
C2111      C2112   1.399       .  A
C2112      H2116   1.082       .  S
C2119      C2124   1.385       .  A
C2119      C2120   1.401       .  A
C2119      N2125   1.341       .  A
C2120      C2121   1.400       .  A
C2120      H2131   1.082       .  S
C2121      C2130   1.375       .  A
C2121      C2122   1.386       .  A
C2122      C2123   1.401       .  A
C2122      N2128   1.340       .  A
C2123      C2124   1.399       .  A
C2123      H2132   1.082       .  S
C2124      C2127   1.375       .  A
N2125      C2126   1.353       .  A
N2125      H2135   1.045       .  S
C2126      C2127   1.392       .  A
C2127      H2133   1.082       .  S
N2128      C2129   1.353       .  A
N2128      H2136   1.045       .  S
C2129      C2130   1.392       .  A
C2130      H2134   1.082       .  S
C2137      C2142   1.384       .  A
C2137      C2138   1.404       .  A
C2137      N2143   1.345       .  A
C2138      C2139   1.403       .  A
C2138      H2149   1.082       .  S
C2139      C2148   1.378       .  A
C2139      C2140   1.384       .  A
C2140      C2141   1.408       .  A
C2140      N2146   1.348       .  A
C2141      C2142   1.407       .  A
C2141      H2150   1.082       .  S
C2142      C2145   1.383       .  A
N2143      C2144   1.356       .  A
N2143      H2153   1.045       .  S
C2144      C2145   1.397       .  A
C2145      H2151   1.082       .  S
N2146      C2147   1.357       .  A
N2146      H2154   1.045       .  S
C2147      C2148   1.395       .  A
C2148      H2152   1.082       .  S
C2155      C2160   1.385       .  A
C2155      C2156   1.405       .  A
C2155      N2161   1.347       .  A
C2156      C2157   1.405       .  A
C2156      H2167   1.082       .  S
C2157      C2166   1.379       .  A
C2157      C2158   1.385       .  A
C2158      C2159   1.405       .  A
C2158      N2164   1.346       .  A
C2159      C2160   1.405       .  A
C2159      H2168   1.082       .  S
C2160      C2163   1.380       .  A
N2161      C2162   1.356       .  A
N2161      H2171   1.045       .  S
C2162      C2163   1.396       .  A
C2163      H2169   1.082       .  S
N2164      C2165   1.356       .  A
N2164      H2172   1.045       .  S
C2165      C2166   1.395       .  A
C2166      H2170   1.082       .  S
C2173      C2178   1.384       .  A
C2173      C2174   1.403       .  A
C2173      N2179   1.343       .  A
C2174      C2175   1.401       .  A
C2174      H2185   1.082       .  S
C2175      C2184   1.376       .  A
C2175      C2176   1.382       .  A
C2176      C2177   1.409       .  A
C2176      N2182   1.348       .  A
C2177      C2178   1.409       .  A
C2177      H2186   1.082       .  S
C2178      C2181   1.387       .  A
N2179      C2180   1.356       .  A
N2179      H2189   1.045       .  S
C2180      C2181   1.399       .  A
C2181      H2187   1.082       .  S
N2182      C2183   1.360       .  A
N2182      H2190   1.044       .  S
C2183      C2184   1.397       .  A
C2184      H2188   1.081       .  S
C2191      C2196   1.384       .  A
C2191      C2192   1.403       .  A
C2191      N2197   1.343       .  A
C2192      C2193   1.402       .  A
C2192      H2203   1.082       .  S
C2193      C2202   1.378       .  A
C2193      C2194   1.384       .  A
C2194      C2195   1.409       .  A
C2194      N2200   1.348       .  A
C2195      C2196   1.408       .  A
C2195      H2204   1.082       .  S
C2196      C2199   1.385       .  A
N2197      C2198   1.355       .  A
N2197      H2207   1.045       .  S
C2198      C2199   1.399       .  A
C2199      H2205   1.082       .  S
N2200      C2201   1.358       .  A
N2200      H2208   1.045       .  S
C2201      C2202   1.394       .  A
C2202      H2206   1.082       .  S
C2209      C2214   1.386       .  A
C2209      C2210   1.400       .  A
C2209      N2215   1.341       .  A
C2210      C2211   1.399       .  A
C2210      H2221   1.083       .  S
C2211      C2220   1.373       .  A
C2211      C2212   1.386       .  A
C2212      C2213   1.400       .  A
C2212      N2218   1.342       .  A
C2213      C2214   1.400       .  A
C2213      H2222   1.082       .  S
C2214      C2217   1.374       .  A
N2215      C2216   1.353       .  A
N2215      H2225   1.045       .  S
C2216      C2217   1.392       .  A
C2217      H2223   1.082       .  S
N2218      C2219   1.353       .  A
N2218      H2226   1.045       .  S
C2219      C2220   1.391       .  A
C2220      H2224   1.083       .  S
C2227      C2232   1.385       .  A
C2227      C2228   1.403       .  A
C2227      N2233   1.343       .  A
C2228      C2229   1.402       .  A
C2228      H2239   1.082       .  S
C2229      C2238   1.378       .  A
C2229      C2230   1.386       .  A
C2230      C2231   1.401       .  A
C2230      N2236   1.341       .  A
C2231      C2232   1.400       .  A
C2231      H2240   1.082       .  S
C2232      C2235   1.375       .  A
N2233      C2234   1.355       .  A
N2233      H2243   1.045       .  S
C2234      C2235   1.393       .  A
C2235      H2241   1.082       .  S
N2236      C2237   1.354       .  A
N2236      H2244   1.045       .  S
C2237      C2238   1.393       .  A
C2238      H2242   1.082       .  S
C2245      C2250   1.384       .  A
C2245      C2246   1.411       .  A
C2245      N2251   1.351       .  A
C2246      C2247   1.411       .  A
C2246      H2257   1.082       .  S
C2247      C2256   1.387       .  A
C2247      C2248   1.384       .  A
C2248      C2249   1.402       .  A
C2248      N2254   1.344       .  A
C2249      C2250   1.401       .  A
C2249      H2258   1.082       .  S
C2250      C2253   1.375       .  A
N2251      C2252   1.359       .  A
N2251      H2261   1.045       .  S
C2252      C2253   1.393       .  A
C2253      H2259   1.083       .  S
N2254      C2255   1.355       .  A
N2254      H2262   1.045       .  S
C2255      C2256   1.400       .  A
C2256      H2260   1.082       .  S
C2263      C2268   1.385       .  A
C2263      C2264   1.403       .  A
C2263      N2269   1.344       .  A
C2264      C2265   1.403       .  A
C2264      H2275   1.082       .  S
C2265      C2274   1.378       .  A
C2265      C2266   1.385       .  A
C2266      C2267   1.404       .  A
C2266      N2272   1.345       .  A
C2267      C2268   1.404       .  A
C2267      H2276   1.082       .  S
C2268      C2271   1.380       .  A
N2269      C2270   1.355       .  A
N2269      H2279   1.045       .  S
C2270      C2271   1.396       .  A
C2271      H2277   1.082       .  S
N2272      C2273   1.355       .  A
N2272      H2280   1.045       .  S
C2273      C2274   1.394       .  A
C2274      H2278   1.082       .  S
C2281      C2286   1.382       .  A
C2281      C2282   1.409       .  A
C2281      N2287   1.347       .  A
C2282      C2283   1.408       .  A
C2282      H2293   1.082       .  S
C2283      C2292   1.387       .  A
C2283      C2284   1.384       .  A
C2284      C2285   1.403       .  A
C2284      N2290   1.341       .  A
C2285      C2286   1.401       .  A
C2285      H2294   1.082       .  S
C2286      C2289   1.377       .  A
N2287      C2288   1.361       .  A
N2287      H2297   1.044       .  S
C2288      C2289   1.397       .  A
C2289      H2295   1.081       .  S
N2290      C2291   1.356       .  A
N2290      H2298   1.045       .  S
C2291      C2292   1.398       .  A
C2292      H2296   1.082       .  S
C2299      C2304   1.384       .  A
C2299      C2300   1.401       .  A
C2299      N2305   1.344       .  A
C2300      C2301   1.402       .  A
C2300      H2311   1.082       .  S
C2301      C2310   1.373       .  A
C2301      C2302   1.384       .  A
C2302      C2303   1.403       .  A
C2302      N2308   1.345       .  A
C2303      C2304   1.404       .  A
C2303      H2312   1.082       .  S
C2304      C2307   1.375       .  A
N2305      C2306   1.354       .  A
N2305      H2315   1.044       .  S
C2306      C2307   1.399       .  A
C2307      H2313   1.082       .  S
N2308      C2309   1.356       .  A
N2308      H2316   1.044       .  S
C2309      C2310   1.397       .  A
C2310      H2314   1.082       .  S
C2317      C2322   1.383       .  A
C2317      C2318   1.404       .  A
C2317      N2323   1.344       .  A
C2318      C2319   1.403   1_556  A
C2318      H2329   1.083       .  S
C2319      C2328   1.376       .  A
C2319      C2320   1.382       .  A
C2320      C2321   1.406       .  A
C2320      N2326   1.346       .  A
C2321      C2322   1.405   1_554  A
C2321      H2330   1.082       .  S
C2322      C2325   1.379       .  A
N2323      C2324   1.359       .  A
N2323      H2333   1.043       .  S
C2324      C2325   1.399       .  A
C2325      H2331   1.082       .  S
N2326      C2327   1.358       .  A
N2326      H2334   1.045       .  S
C2327      C2328   1.402       .  A
C2328      H2332   1.081       .  S
C2335      C2340   1.384       .  A
C2335      C2336   1.404       .  A
C2335      N2341   1.343       .  A
C2336      C2337   1.402       .  A
C2336      H2347   1.082       .  S
C2337      C2346   1.377       .  A
C2337      C2338   1.382       .  A
C2338      C2339   1.409       .  A
C2338      N2344   1.348       .  A
C2339      C2340   1.409       .  A
C2339      H2348   1.082       .  S
C2340      C2343   1.386       .  A
N2341      C2342   1.356       .  A
N2341      H2351   1.045       .  S
C2342      C2343   1.399       .  A
C2343      H2349   1.082       .  S
N2344      C2345   1.360       .  A
N2344      H2352   1.044       .  S
C2345      C2346   1.398       .  A
C2346      H2350   1.081       .  S
C2353      C2358   1.383       .  A
C2353      C2354   1.408       .  A
C2353      N2359   1.347       .  A
C2354      C2355   1.407       .  A
C2354      H2365   1.082       .  S
C2355      C2364   1.385       .  A
C2355      C2356   1.383       .  A
C2356      C2357   1.406       .  A
C2356      N2362   1.344       .  A
C2357      C2358   1.405       .  A
C2357      H2366   1.082       .  S
C2358      C2361   1.381       .  A
N2359      C2360   1.358       .  A
N2359      H2369   1.044       .  S
C2360      C2361   1.399       .  A
C2361      H2367   1.082       .  S
N2362      C2363   1.359       .  A
N2362      H2370   1.044       .  S
C2363      C2364   1.399       .  A
C2364      H2368   1.082       .  S
C2371      C2376   1.384       .  A
C2371      C2372   1.402       .  A
C2371      N2377   1.344       .  A
C2372      C2373   1.402       .  A
C2372      H2383   1.082       .  S
C2373      C2382   1.375   1_554  A
C2373      C2374   1.384   1_554  A
C2374      C2375   1.403       .  A
C2374      N2380   1.344       .  A
C2375      C2376   1.403   1_556  A
C2375      H2384   1.082       .  S
C2376      C2379   1.376       .  A
N2377      C2378   1.356       .  A
N2377      H2387   1.044       .  S
C2378      C2379   1.398       .  A
C2379      H2385   1.082   1_554  S
N2380      C2381   1.356       .  A
N2380      H2388   1.044       .  S
C2381      C2382   1.397       .  A
C2382      H2386   1.082   1_556  S
C2389      C2394   1.382       .  A
C2389      C2390   1.411       .  A
C2389      N2395   1.348       .  A
C2390      C2391   1.409       .  A
C2390      H2401   1.082       .  S
C2391      C2400   1.387       .  A
C2391      C2392   1.382       .  A
C2392      C2393   1.403       .  A
C2392      N2398   1.341       .  A
C2393      C2394   1.401       .  A
C2393      H2402   1.082       .  S
C2394      C2397   1.378       .  A
N2395      C2396   1.361       .  A
N2395      H2405   1.044       .  S
C2396      C2397   1.398       .  A
C2397      H2403   1.082       .  S
N2398      C2399   1.359       .  A
N2398      H2406   1.043       .  S
C2399      C2400   1.401       .  A
C2400      H2404   1.082       .  S
C2407      C2412   1.382       .  A
C2407      C2408   1.410       .  A
C2407      N2413   1.347       .  A
C2408      C2409   1.409       .  A
C2408      H2419   1.082       .  S
C2409      C2418   1.387       .  A
C2409      C2410   1.384       .  A
C2410      C2411   1.404       .  A
C2410      N2416   1.343       .  A
C2411      C2412   1.402       .  A
C2411      H2420   1.082       .  S
C2412      C2415   1.378       .  A
N2413      C2414   1.360       .  A
N2413      H2423   1.044       .  S
C2414      C2415   1.397       .  A
C2415      H2421   1.082       .  S
N2416      C2417   1.356       .  A
N2416      H2424   1.045       .  S
C2417      C2418   1.399       .  A
C2418      H2422   1.082       .  S
C2425      C2430   1.382       .  A
C2425      C2426   1.408   1_545  A
C2425      N2431   1.346       .  A
C2426      C2427   1.407       .  A
C2426      H2437   1.082       .  S
C2427      C2436   1.382       .  A
C2427      C2428   1.382       .  A
C2428      C2429   1.403   1_565  A
C2428      N2434   1.343       .  A
C2429      C2430   1.402       .  A
C2429      H2438   1.082       .  S
C2430      C2433   1.378       .  A
N2431      C2432   1.359       .  A
N2431      H2441   1.045       .  S
C2432      C2433   1.400       .  A
C2433      H2439   1.081       .  S
N2434      C2435   1.359       .  A
N2434      H2442   1.042       .  S
C2435      C2436   1.401       .  A
C2436      H2440   1.082       .  S
C2443      C2448   1.385   1_545  A
C2443      C2444   1.399       .  A
C2443      N2449   1.343       .  A
C2444      C2445   1.400   1_545  A
C2444      H2455   1.082       .  S
C2445      C2454   1.370       .  A
C2445      C2446   1.383       .  A
C2446      C2447   1.405       .  A
C2446      N2452   1.347       .  A
C2447      C2448   1.405       .  A
C2447      H2456   1.082       .  S
C2448      C2451   1.377       .  A
N2449      C2450   1.353       .  A
N2449      H2459   1.044       .  S
C2450      C2451   1.398   1_545  A
C2451      H2457   1.082       .  S
N2452      C2453   1.357       .  A
N2452      H2460   1.044       .  S
C2453      C2454   1.397       .  A
C2454      H2458   1.082       .  S
C2461      C2466   1.383       .  A
C2461      C2462   1.403   1_554  A
C2461      N2467   1.346       .  A
C2462      C2463   1.403   1_565  A
C2462      H2473   1.082       .  S
C2463      C2472   1.376       .  A
C2463      C2464   1.382       .  A
C2464      C2465   1.406   1_556  A
C2464      N2470   1.347       .  A
C2465      C2466   1.407   1_545  A
C2465      H2474   1.082       .  S
C2466      C2469   1.378       .  A
N2467      C2468   1.358       .  A
N2467      H2477   1.043       .  S
C2468      C2469   1.400       .  A
C2469      H2475   1.082       .  S
N2470      C2471   1.359       .  A
N2470      H2478   1.045       .  S
C2471      C2472   1.400       .  A
C2472      H2476   1.080       .  S
C2479      C2484   1.382       .  A
C2479      C2480   1.412       .  A
C2479      N2485   1.350       .  A
C2480      C2481   1.411       .  A
C2480      H2491   1.082       .  S
C2481      C2490   1.390       .  A
C2481      C2482   1.384       .  A
C2482      C2483   1.404       .  A
C2482      N2488   1.343       .  A
C2483      C2484   1.402       .  A
C2483      H2492   1.082       .  S
C2484      C2487   1.378       .  A
N2485      C2486   1.362       .  A
N2485      H2495   1.044       .  S
C2486      C2487   1.397       .  A
C2487      H2493   1.081       .  S
N2488      C2489   1.356       .  A
N2488      H2496   1.045       .  S
C2489      C2490   1.400       .  A
C2490      H2494   1.082       .  S
C2497      C2502   1.382       .  A
C2497      C2498   1.409       .  A
C2497      N2503   1.349       .  A
C2498      C2499   1.409       .  A
C2498      H2509   1.082       .  S
C2499      C2508   1.384       .  A
C2499      C2500   1.383       .  A
C2500      C2501   1.401       .  A
C2500      N2506   1.342       .  A
C2501      C2502   1.401       .  A
C2501      H2510   1.082       .  S
C2502      C2505   1.374       .  A
N2503      C2504   1.360       .  A
N2503      H2513   1.044       .  S
C2504      C2505   1.398       .  A
C2505      H2511   1.082       .  S
N2506      C2507   1.357       .  A
N2506      H2514   1.044       .  S
C2507      C2508   1.401       .  A
C2508      H2512   1.081       .  S
C2515      C2520   1.383       .  A
C2515      C2516   1.405   1_554  A
C2515      N2521   1.341       .  A
C2516      C2517   1.402       .  A
C2516      H2527   1.082       .  S
C2517      C2526   1.381       .  A
C2517      C2518   1.383   1_556  A
C2518      C2519   1.406       .  A
C2518      N2524   1.343   1_554  A
C2519      C2520   1.404       .  A
C2519      H2528   1.082       .  S
C2520      C2523   1.383       .  A
N2521      C2522   1.358       .  A
N2521      H2531   1.044   1_554  S
C2522      C2523   1.396       .  A
C2523      H2529   1.082       .  S
N2524      C2525   1.359       .  A
N2524      H2532   1.044   1_556  S
C2525      C2526   1.396       .  A
C2526      H2530   1.082       .  S
C2533      C2538   1.383       .  A
C2533      C2534   1.400       .  A
C2533      N2539   1.344       .  A
C2534      C2535   1.401       .  A
C2534      H2545   1.082       .  S
C2535      C2544   1.372       .  A
C2535      C2536   1.384       .  A
C2536      C2537   1.411       .  A
C2536      N2542   1.353       .  A
C2537      C2538   1.412       .  A
C2537      H2546   1.082       .  S
C2538      C2541   1.384       .  A
N2539      C2540   1.356       .  A
N2539      H2549   1.043       .  S
C2540      C2541   1.405       .  A
C2541      H2547   1.082       .  S
N2542      C2543   1.360       .  A
N2542      H2550   1.044       .  S
C2543      C2544   1.394       .  A
C2544      H2548   1.083       .  S
C2551      C2556   1.382       .  A
C2551      C2552   1.405       .  A
C2551      N2557   1.344       .  A
C2552      C2553   1.405   1_556  A
C2552      H2563   1.082       .  S
C2553      C2562   1.380       .  A
C2553      C2554   1.382       .  A
C2554      C2555   1.406       .  A
C2554      N2560   1.345       .  A
C2555      C2556   1.404   1_554  A
C2555      H2564   1.082       .  S
C2556      C2559   1.379       .  A
N2557      C2558   1.358       .  A
N2557      H2567   1.045       .  S
C2558      C2559   1.401       .  A
C2559      H2565   1.080       .  S
N2560      C2561   1.361       .  A
N2560      H2568   1.042       .  S
C2561      C2562   1.399       .  A
C2562      H2566   1.082       .  S
C2569      C2574   1.382       .  A
C2569      C2570   1.405       .  A
C2569      N2575   1.344       .  A
C2570      C2571   1.404       .  A
C2570      H2581   1.082       .  S
C2571      C2580   1.378       .  A
C2571      C2572   1.382       .  A
C2572      C2573   1.411       .  A
C2572      N2578   1.350       .  A
C2573      C2574   1.410       .  A
C2573      H2582   1.082       .  S
C2574      C2577   1.387       .  A
N2575      C2576   1.360       .  A
N2575      H2585   1.044       .  S
C2576      C2577   1.402       .  A
C2577      H2583   1.082       .  S
N2578      C2579   1.360       .  A
N2578      H2586   1.044       .  S
C2579      C2580   1.401       .  A
C2580      H2584   1.082       .  S
C2587      C2592   1.384       .  A
C2587      C2588   1.403       .  A
C2587      N2593   1.345       .  A
C2588      C2589   1.403       .  A
C2588      H2599   1.082       .  S
C2589      C2598   1.375       .  A
C2589      C2590   1.384       .  A
C2590      C2591   1.403       .  A
C2590      N2596   1.345       .  A
C2591      C2592   1.403       .  A
C2591      H2600   1.082       .  S
C2592      C2595   1.375       .  A
N2593      C2594   1.355       .  A
N2593      H2603   1.044       .  S
C2594      C2595   1.398       .  A
C2595      H2601   1.082       .  S
N2596      C2597   1.356       .  A
N2596      H2604   1.044       .  S
C2597      C2598   1.399       .  A
C2598      H2602   1.082       .  S
C2605      C2610   1.382       .  A
C2605      C2606   1.403       .  A
C2605      N2611   1.345       .  A
C2606      C2607   1.403       .  A
C2606      H2617   1.082       .  S
C2607      C2616   1.376       .  A
C2607      C2608   1.384       .  A
C2608      C2609   1.411       .  A
C2608      N2614   1.352       .  A
C2609      C2610   1.412       .  A
C2609      H2618   1.082       .  S
C2610      C2613   1.385       .  A
N2611      C2612   1.358       .  A
N2611      H2621   1.043       .  S
C2612      C2613   1.404       .  A
C2613      H2619   1.082       .  S
N2614      C2615   1.359       .  A
N2614      H2622   1.045       .  S
C2615      C2616   1.395       .  A
C2616      H2620   1.082       .  S
C2623      C2628   1.382       .  A
C2623      C2624   1.408   1_545  A
C2623      N2629   1.345       .  A
C2624      C2625   1.406   1_556  A
C2624      H2635   1.082       .  S
C2625      C2634   1.382       .  A
C2625      C2626   1.382       .  A
C2626      C2627   1.406   1_565  A
C2626      N2632   1.345       .  A
C2627      C2628   1.405   1_554  A
C2627      H2636   1.082       .  S
C2628      C2631   1.381       .  A
N2629      C2630   1.359       .  A
N2629      H2639   1.045       .  S
C2630      C2631   1.402       .  A
C2631      H2637   1.081       .  S
N2632      C2633   1.361       .  A
N2632      H2640   1.042       .  S
C2633      C2634   1.401       .  A
C2634      H2638   1.082       .  S
C2641      C2646   1.383       .  A
C2641      C2642   1.403       .  A
C2641      N2647   1.344       .  A
C2642      C2643   1.402       .  A
C2642      H2653   1.082       .  S
C2643      C2652   1.376       .  A
C2643      C2644   1.382       .  A
C2644      C2645   1.413       .  A
C2644      N2650   1.352       .  A
C2645      C2646   1.413       .  A
C2645      H2654   1.082       .  S
C2646      C2649   1.390       .  A
N2647      C2648   1.357       .  A
N2647      H2657   1.044       .  S
C2648      C2649   1.402       .  A
C2649      H2655   1.082       .  S
N2650      C2651   1.361       .  A
N2650      H2658   1.044       .  S
C2651      C2652   1.397       .  A
C2652      H2656   1.082       .  S
C2659      C2664   1.382       .  A
C2659      C2660   1.405       .  A
C2659      N2665   1.343       .  A
C2660      C2661   1.403       .  A
C2660      H2671   1.082       .  S
C2661      C2670   1.378       .  A
C2661      C2662   1.382       .  A
C2662      C2663   1.411       .  A
C2662      N2668   1.349       .  A
C2663      C2664   1.410       .  A
C2663      H2672   1.082       .  S
C2664      C2667   1.388       .  A
N2665      C2666   1.359       .  A
N2665      H2675   1.044       .  S
C2666      C2667   1.402       .  A
C2667      H2673   1.082       .  S
N2668      C2669   1.360       .  A
N2668      H2676   1.044       .  S
C2669      C2670   1.400       .  A
C2670      H2674   1.082       .  S
C2677      C2682   1.382       .  A
C2677      C2678   1.408   1_565  A
C2677      N2683   1.346       .  A
C2678      C2679   1.407       .  A
C2678      H2689   1.082       .  S
C2679      C2688   1.382       .  A
C2679      C2680   1.382       .  A
C2680      C2681   1.404   1_545  A
C2680      N2686   1.344       .  A
C2681      C2682   1.403       .  A
C2681      H2690   1.082       .  S
C2682      C2685   1.379       .  A
N2683      C2684   1.359       .  A
N2683      H2693   1.045       .  S
C2684      C2685   1.400       .  A
C2685      H2691   1.081       .  S
N2686      C2687   1.360       .  A
N2686      H2694   1.042       .  S
C2687      C2688   1.401       .  A
C2688      H2692   1.082       .  S
C2695      C2700   1.384       .  A
C2695      C2696   1.403       .  A
C2695      N2701   1.346       .  A
C2696      C2697   1.404       .  A
C2696      H2707   1.082       .  S
C2697      C2706   1.374       .  A
C2697      C2698   1.384   1_565  A
C2698      C2699   1.401       .  A
C2698      N2704   1.345       .  A
C2699      C2700   1.402   1_545  A
C2699      H2708   1.082       .  S
C2700      C2703   1.374       .  A
N2701      C2702   1.356       .  A
N2701      H2711   1.044       .  S
C2702      C2703   1.397       .  A
C2703      H2709   1.082       .  S
N2704      C2705   1.355       .  A
N2704      H2712   1.044       .  S
C2705      C2706   1.400   1_545  A
C2706      H2710   1.082       .  S
C2713      C2718   1.384       .  A
C2713      C2714   1.403       .  A
C2713      N2719   1.341       .  A
C2714      C2715   1.401       .  A
C2714      H2725   1.082       .  S
C2715      C2724   1.378       .  A
C2715      C2716   1.382       .  A
C2716      C2717   1.414       .  A
C2716      N2722   1.351       .  A
C2717      C2718   1.413       .  A
C2717      H2726   1.082       .  S
C2718      C2721   1.392       .  A
N2719      C2720   1.355       .  A
N2719      H2729   1.045       .  S
C2720      C2721   1.402       .  A
C2721      H2727   1.082       .  S
N2722      C2723   1.363       .  A
N2722      H2730   1.044       .  S
C2723      C2724   1.397       .  A
C2724      H2728   1.081       .  S
C2731      C2736   1.384       .  A
C2731      C2732   1.411       .  A
C2731      N2737   1.352       .  A
C2732      C2733   1.412       .  A
C2732      H2743   1.082       .  S
C2733      C2742   1.386       .  A
C2733      C2734   1.385       .  A
C2734      C2735   1.399       .  A
C2734      N2740   1.342       .  A
C2735      C2736   1.399       .  A
C2735      H2744   1.083       .  S
C2736      C2739   1.371       .  A
N2737      C2738   1.359       .  A
N2737      H2747   1.044       .  S
C2738      C2739   1.392       .  A
C2739      H2745   1.083       .  S
N2740      C2741   1.353       .  A
N2740      H2748   1.045       .  S
C2741      C2742   1.399       .  A
C2742      H2746   1.082       .  S
C2749      C2754   1.385       .  A
C2749      C2750   1.401       .  A
C2749      N2755   1.341       .  A
C2750      C2751   1.400       .  A
C2750      H2761   1.082       .  S
C2751      C2760   1.376       .  A
C2751      C2752   1.386       .  A
C2752      C2753   1.402       .  A
C2752      N2758   1.341       .  A
C2753      C2754   1.401       .  A
C2753      H2762   1.082       .  S
C2754      C2757   1.378       .  A
N2755      C2756   1.353       .  A
N2755      H2765   1.045       .  S
C2756      C2757   1.394       .  A
C2757      H2763   1.082       .  S
N2758      C2759   1.353       .  A
N2758      H2766   1.045       .  S
C2759      C2760   1.393       .  A
C2760      H2764   1.083       .  S
C2767      C2772   1.384       .  A
C2767      C2768   1.406       .  A
C2767      N2773   1.348       .  A
C2768      C2769   1.406       .  A
C2768      H2779   1.082       .  S
C2769      C2778   1.380       .  A
C2769      C2770   1.383       .  A
C2770      C2771   1.404       .  A
C2770      N2776   1.345       .  A
C2771      C2772   1.404       .  A
C2771      H2780   1.082       .  S
C2772      C2775   1.377       .  A
N2773      C2774   1.357       .  A
N2773      H2783   1.045       .  S
C2774      C2775   1.396       .  A
C2775      H2781   1.083       .  S
N2776      C2777   1.357       .  A
N2776      H2784   1.044       .  S
C2777      C2778   1.398       .  A
C2778      H2782   1.082       .  S
C2785      C2790   1.384       .  A
C2785      C2786   1.408       .  A
C2785      N2791   1.348       .  A
C2786      C2787   1.407       .  A
C2786      H2797   1.082       .  S
C2787      C2796   1.383       .  A
C2787      C2788   1.384       .  A
C2788      C2789   1.402       .  A
C2788      N2794   1.343       .  A
C2789      C2790   1.401       .  A
C2789      H2798   1.083       .  S
C2790      C2793   1.375       .  A
N2791      C2792   1.358       .  A
N2791      H2801   1.045       .  S
C2792      C2793   1.394       .  A
C2793      H2799   1.083       .  S
N2794      C2795   1.355       .  A
N2794      H2802   1.045       .  S
C2795      C2796   1.397       .  A
C2796      H2800   1.082       .  S
C2803      C2808   1.385       .  A
C2803      C2804   1.403       .  A
C2803      N2809   1.343       .  A
C2804      C2805   1.402       .  A
C2804      H2815   1.082       .  S
C2805      C2814   1.379       .  A
C2805      C2806   1.385       .  A
C2806      C2807   1.406       .  A
C2806      N2812   1.345       .  A
C2807      C2808   1.405       .  A
C2807      H2816   1.082       .  S
C2808      C2811   1.381       .  A
N2809      C2810   1.355       .  A
N2809      H2819   1.045       .  S
C2810      C2811   1.395       .  A
C2811      H2817   1.082       .  S
N2812      C2813   1.356       .  A
N2812      H2820   1.045       .  S
C2813      C2814   1.393       .  A
C2814      H2818   1.082       .  S
C2821      C2826   1.383       .  A
C2821      C2822   1.410       .  A
C2821      N2827   1.349       .  A
C2822      C2823   1.410       .  A
C2822      H2833   1.082       .  S
C2823      C2832   1.387       .  A
C2823      C2824   1.384       .  A
C2824      C2825   1.406       .  A
C2824      N2830   1.346       .  A
C2825      C2826   1.405       .  A
C2825      H2834   1.082       .  S
C2826      C2829   1.381       .  A
N2827      C2828   1.359       .  A
N2827      H2837   1.045       .  S
C2828      C2829   1.396       .  A
C2829      H2835   1.082       .  S
N2830      C2831   1.356       .  A
N2830      H2838   1.045       .  S
C2831      C2832   1.400       .  A
C2832      H2836   1.082       .  S
C2839      C2844   1.384       .  A
C2839      C2840   1.405       .  A
C2839      N2845   1.344       .  A
C2840      C2841   1.403       .  A
C2840      H2851   1.082       .  S
C2841      C2850   1.380       .  A
C2841      C2842   1.383       .  A
C2842      C2843   1.410       .  A
C2842      N2848   1.347       .  A
C2843      C2844   1.409       .  A
C2843      H2852   1.082       .  S
C2844      C2847   1.387       .  A
N2845      C2846   1.356       .  A
N2845      H2855   1.045       .  S
C2846      C2847   1.399       .  A
C2847      H2853   1.082       .  S
N2848      C2849   1.360       .  A
N2848      H2856   1.044       .  S
C2849      C2850   1.396       .  A
C2850      H2854   1.082       .  S
C2857      C2862   1.385       .  A
C2857      C2858   1.402       .  A
C2857      N2863   1.342       .  A
C2858      C2859   1.401       .  A
C2858      H2869   1.082       .  S
C2859      C2868   1.376       .  A
C2859      C2860   1.385       .  A
C2860      C2861   1.401       .  A
C2860      N2866   1.341       .  A
C2861      C2862   1.401       .  A
C2861      H2870   1.082       .  S
C2862      C2865   1.376       .  A
N2863      C2864   1.354       .  A
N2863      H2873   1.045       .  S
C2864      C2865   1.393       .  A
C2865      H2871   1.082       .  S
N2866      C2867   1.354       .  A
N2866      H2874   1.045       .  S
C2867      C2868   1.392       .  A
C2868      H2872   1.082       .  S
C2875      C2880   1.384       .  A
C2875      C2876   1.404       .  A
C2875      N2881   1.343       .  A
C2876      C2877   1.403       .  A
C2876      H2887   1.082       .  S
C2877      C2886   1.381       .  A
C2877      C2878   1.385       .  A
C2878      C2879   1.404       .  A
C2878      N2884   1.342       .  A
C2879      C2880   1.403       .  A
C2879      H2888   1.082       .  S
C2880      C2883   1.381       .  A
N2881      C2882   1.355       .  A
N2881      H2891   1.045       .  S
C2882      C2883   1.395       .  A
C2883      H2889   1.082       .  S
N2884      C2885   1.355       .  A
N2884      H2892   1.045       .  S
C2885      C2886   1.394       .  A
C2886      H2890   1.082       .  S
C2893      C2898   1.384       .  A
C2893      C2894   1.409       .  A
C2893      N2899   1.349       .  A
C2894      C2895   1.408       .  A
C2894      H2905   1.082       .  S
C2895      C2904   1.385       .  A
C2895      C2896   1.384       .  A
C2896      C2897   1.406       .  A
C2896      N2902   1.346       .  A
C2897      C2898   1.405       .  A
C2897      H2906   1.082       .  S
C2898      C2901   1.381       .  A
N2899      C2900   1.359       .  A
N2899      H2909   1.045       .  S
C2900      C2901   1.396       .  A
C2901      H2907   1.082       .  S
N2902      C2903   1.357       .  A
N2902      H2910   1.045       .  S
C2903      C2904   1.398       .  A
C2904      H2908   1.082       .  S
C2911      C2916   1.386       .  A
C2911      C2912   1.398       .  A
C2911      N2917   1.340       .  A
C2912      C2913   1.397       .  A
C2912      H2923   1.083       .  S
C2913      C2922   1.371       .  A
C2913      C2914   1.385       .  A
C2914      C2915   1.405       .  A
C2914      N2920   1.346       .  A
C2915      C2916   1.404       .  A
C2915      H2924   1.082       .  S
C2916      C2919   1.378       .  A
N2917      C2918   1.352       .  A
N2917      H2927   1.045       .  S
C2918      C2919   1.394       .  A
C2919      H2925   1.082       .  S
N2920      C2921   1.356       .  A
N2920      H2928   1.045       .  S
C2921      C2922   1.390       .  A
C2922      H2926   1.082       .  S
C2929      C2934   1.383       .  A
C2929      C2930   1.409       .  A
C2929      N2935   1.347       .  A
C2930      C2931   1.407       .  A
C2930      H2941   1.082       .  S
C2931      C2940   1.383       .  A
C2931      C2932   1.383       .  A
C2932      C2933   1.408       .  A
C2932      N2938   1.347       .  A
C2933      C2934   1.407       .  A
C2933      H2942   1.082       .  S
C2934      C2937   1.386       .  A
N2935      C2936   1.359       .  A
N2935      H2945   1.045       .  S
C2936      C2937   1.398       .  A
C2937      H2943   1.082       .  S
N2938      C2939   1.359       .  A
N2938      H2946   1.044       .  S
C2939      C2940   1.400       .  A
C2940      H2944   1.082       .  S
C2947      C2952   1.385       .  A
C2947      C2948   1.403       .  A
C2947      N2953   1.343       .  A
C2948      C2949   1.402       .  A
C2948      H2959   1.082       .  S
C2949      C2958   1.378       .  A
C2949      C2950   1.386       .  A
C2950      C2951   1.398       .  A
C2950      N2956   1.338       .  A
C2951      C2952   1.397       .  A
C2951      H2960   1.083       .  S
C2952      C2955   1.372       .  A
N2953      C2954   1.355       .  A
N2953      H2963   1.045       .  S
C2954      C2955   1.391       .  A
C2955      H2961   1.083       .  S
N2956      C2957   1.352       .  A
N2956      H2964   1.045       .  S
C2957      C2958   1.394       .  A
C2958      H2962   1.082       .  S
C2965      C2970   1.384       .  A
C2965      C2966   1.410       .  A
C2965      N2971   1.350       .  A
C2966      C2967   1.410       .  A
C2966      H2977   1.082       .  S
C2967      C2976   1.386       .  A
C2967      C2968   1.384       .  A
C2968      C2969   1.405       .  A
C2968      N2974   1.345       .  A
C2969      C2970   1.404       .  A
C2969      H2978   1.082       .  S
C2970      C2973   1.381       .  A
N2971      C2972   1.359       .  A
N2971      H2981   1.045       .  S
C2972      C2973   1.396       .  A
C2973      H2979   1.082       .  S
N2974      C2975   1.355       .  A
N2974      H2982   1.045       .  S
C2975      C2976   1.399       .  A
C2976      H2980   1.082       .  S
C2983      C2988   1.385       .  A
C2983      C2984   1.407       .  A
C2983      N2989   1.347       .  A
C2984      C2985   1.406       .  A
C2984      H2995   1.082       .  S
C2985      C2994   1.381       .  A
C2985      C2986   1.385       .  A
C2986      C2987   1.402       .  A
C2986      N2992   1.344       .  A
C2987      C2988   1.402       .  A
C2987      H2996   1.082       .  S
C2988      C2991   1.377       .  A
N2989      C2990   1.356       .  A
N2989      H2999   1.045       .  S
C2990      C2991   1.395       .  A
C2991      H2997   1.082       .  S
N2992      C2993   1.353       .  A
N2992      H3000   1.045       .  S
C2993      C2994   1.397       .  A
C2994      H2998   1.082       .  S
C3001      C3006   1.383       .  A
C3001      C3002   1.405       .  A
C3001      N3007   1.346       .  A
C3002      C3003   1.405       .  A
C3002      H3013   1.082       .  S
C3003      C3012   1.379       .  A
C3003      C3004   1.383       .  A
C3004      C3005   1.411       .  A
C3004      N3010   1.352       .  A
C3005      C3006   1.412       .  A
C3005      H3014   1.082       .  S
C3006      C3009   1.386       .  A
N3007      C3008   1.358       .  A
N3007      H3017   1.044       .  S
C3008      C3009   1.403       .  A
C3009      H3015   1.082       .  S
N3010      C3011   1.360       .  A
N3010      H3018   1.045       .  S
C3011      C3012   1.396       .  A
C3012      H3016   1.082       .  S
C3019      C3024   1.383       .  A
C3019      C3020   1.405   1_565  A
C3019      N3025   1.341       .  A
C3020      C3021   1.403       .  A
C3020      H3031   1.082       .  S
C3021      C3030   1.382       .  A
C3021      C3022   1.383   1_545  A
C3022      C3023   1.406       .  A
C3022      N3028   1.342   1_565  A
C3023      C3024   1.403       .  A
C3023      H3032   1.082       .  S
C3024      C3027   1.383       .  A
N3025      C3026   1.357       .  A
N3025      H3035   1.044       .  S
C3026      C3027   1.396       .  A
C3027      H3033   1.082       .  S
N3028      C3029   1.360       .  A
N3028      H3036   1.044   1_545  S
C3029      C3030   1.396       .  A
C3030      H3034   1.082       .  S
C3037      C3042   1.382       .  A
C3037      C3038   1.407   1_565  A
C3037      N3043   1.346       .  A
C3038      C3039   1.407       .  A
C3038      H3049   1.082       .  S
C3039      C3048   1.381       .  A
C3039      C3040   1.382       .  A
C3040      C3041   1.406   1_545  A
C3040      N3046   1.347       .  A
C3041      C3042   1.406       .  A
C3041      H3050   1.082       .  S
C3042      C3045   1.380       .  A
N3043      C3044   1.359       .  A
N3043      H3053   1.045       .  S
C3044      C3045   1.403       .  A
C3045      H3051   1.081       .  S
N3046      C3047   1.360       .  A
N3046      H3054   1.043       .  S
C3047      C3048   1.400       .  A
C3048      H3052   1.082       .  S
C3055      C3060   1.383       .  A
C3055      C3056   1.407       .  A
C3055      N3061   1.346       .  A
C3056      C3057   1.406       .  A
C3056      H3067   1.082       .  S
C3057      C3066   1.384       .  A
C3057      C3058   1.384       .  A
C3058      C3059   1.407       .  A
C3058      N3064   1.345       .  A
C3059      C3060   1.405       .  A
C3059      H3068   1.082       .  S
C3060      C3063   1.382       .  A
N3061      C3062   1.358       .  A
N3061      H3071   1.044       .  S
C3062      C3063   1.398       .  A
C3063      H3069   1.082       .  S
N3064      C3065   1.357       .  A
N3064      H3072   1.045       .  S
C3065      C3066   1.397       .  A
C3066      H3070   1.082       .  S
C3073      C3078   1.383       .  A
C3073      C3074   1.402       .  A
C3073      N3079   1.343       .  A
C3074      C3075   1.401       .  A
C3074      H3085   1.082       .  S
C3075      C3084   1.374       .  A
C3075      C3076   1.382       .  A
C3076      C3077   1.412       .  A
C3076      N3082   1.352       .  A
C3077      C3078   1.412       .  A
C3077      H3086   1.082       .  S
C3078      C3081   1.387       .  A
N3079      C3080   1.358       .  A
N3079      H3089   1.044       .  S
C3080      C3081   1.402       .  A
C3081      H3087   1.082       .  S
N3082      C3083   1.361       .  A
N3082      H3090   1.044       .  S
C3083      C3084   1.398       .  A
C3084      H3088   1.081       .  S
C3091      C3096   1.383       .  A
C3091      C3092   1.401       .  A
C3091      N3097   1.344       .  A
C3092      C3093   1.402       .  A
C3092      H3103   1.082       .  S
C3093      C3102   1.374       .  A
C3093      C3094   1.384       .  A
C3094      C3095   1.407       .  A
C3094      N3100   1.349       .  A
C3095      C3096   1.408       .  A
C3095      H3104   1.082       .  S
C3096      C3099   1.379       .  A
N3097      C3098   1.355       .  A
N3097      H3107   1.044       .  S
C3098      C3099   1.401       .  A
C3099      H3105   1.082       .  S
N3100      C3101   1.358       .  A
N3100      H3108   1.044       .  S
C3101      C3102   1.396       .  A
C3102      H3106   1.082       .  S
C3109      C3114   1.383       .  A
C3109      C3110   1.411       .  A
C3109      N3115   1.349       .  A
C3110      C3111   1.410       .  A
C3110      H3121   1.082       .  S
C3111      C3120   1.388       .  A
C3111      C3112   1.383       .  A
C3112      C3113   1.407       .  A
C3112      N3118   1.345       .  A
C3113      C3114   1.405       .  A
C3113      H3122   1.082       .  S
C3114      C3117   1.384       .  A
N3115      C3116   1.360       .  A
N3115      H3125   1.044       .  S
C3116      C3117   1.397       .  A
C3117      H3123   1.082       .  S
N3118      C3119   1.357       .  A
N3118      H3126   1.045       .  S
C3119      C3120   1.401       .  A
C3120      H3124   1.082       .  S
C3127      C3132   1.382   1_655  A
C3127      C3128   1.405   1_545  A
C3127      N3133   1.346       .  A
C3128      C3129   1.405   1_655  A
C3128      H3139   1.082       .  S
C3129      C3138   1.378       .  A
C3129      C3130   1.382       .  A
C3130      C3131   1.408   1_565  A
C3130      N3136   1.349       .  A
C3131      C3132   1.408       .  A
C3131      H3140   1.082       .  S
C3132      C3135   1.382   1_455  A
N3133      C3134   1.357       .  A
N3133      H3143   1.045       .  S
C3134      C3135   1.405       .  A
C3135      H3141   1.081       .  S
N3136      C3137   1.362       .  A
N3136      H3144   1.043       .  S
C3137      C3138   1.398       .  A
C3138      H3142   1.082       .  S
C3145      C3150   1.382       .  A
C3145      C3146   1.408       .  A
C3145      N3151   1.348       .  A
C3146      C3147   1.408       .  A
C3146      H3157   1.082       .  S
C3147      C3156   1.382       .  A
C3147      C3148   1.382       .  A
C3148      C3149   1.400       .  A
C3148      N3154   1.341       .  A
C3149      C3150   1.399       .  A
C3149      H3158   1.082       .  S
C3150      C3153   1.372       .  A
N3151      C3152   1.360       .  A
N3151      H3161   1.044       .  S
C3152      C3153   1.398       .  A
C3153      H3159   1.081       .  S
N3154      C3155   1.357       .  A
N3154      H3162   1.043       .  S
C3155      C3156   1.401       .  A
C3156      H3160   1.081       .  S
C3163      C3168   1.383   1_455  A
C3163      C3164   1.405       .  A
C3163      N3169   1.342       .  A
C3164      C3165   1.403       .  A
C3164      H3175   1.082       .  S
C3165      C3174   1.383       .  A
C3165      C3166   1.383       .  A
C3166      C3167   1.408   1_455  A
C3166      N3172   1.344       .  A
C3167      C3168   1.405       .  A
C3167      H3176   1.082       .  S
C3168      C3171   1.384       .  A
N3169      C3170   1.358   1_455  A
N3169      H3179   1.044       .  S
C3170      C3171   1.398       .  A
C3171      H3177   1.082       .  S
N3172      C3173   1.360       .  A
N3172      H3180   1.044       .  S
C3173      C3174   1.396       .  A
C3174      H3178   1.082       .  S
C3181      C3186   1.384       .  A
C3181      C3182   1.407       .  A
C3181      N3187   1.348       .  A
C3182      C3183   1.407       .  A
C3182      H3193   1.082       .  S
C3183      C3192   1.380       .  A
C3183      C3184   1.383       .  A
C3184      C3185   1.405       .  A
C3184      N3190   1.346       .  A
C3185      C3186   1.405       .  A
C3185      H3194   1.082       .  S
C3186      C3189   1.379       .  A
N3187      C3188   1.357       .  A
N3187      H3197   1.045       .  S
C3188      C3189   1.397       .  A
C3189      H3195   1.082       .  S
N3190      C3191   1.358       .  A
N3190      H3198   1.044       .  S
C3191      C3192   1.401       .  A
C3192      H3196   1.082       .  S
C3199      C3204   1.382   1_655  A
C3199      C3200   1.406       .  A
C3199      N3205   1.346       .  A
C3200      C3201   1.405   1_655  A
C3200      H3211   1.082       .  S
C3201      C3210   1.377       .  A
C3201      C3202   1.383       .  A
C3202      C3203   1.406       .  A
C3202      N3208   1.348       .  A
C3203      C3204   1.406       .  A
C3203      H3212   1.082       .  S
C3204      C3207   1.379   1_455  A
N3205      C3206   1.359       .  A
N3205      H3215   1.045       .  S
C3206      C3207   1.402       .  A
C3207      H3213   1.080       .  S
N3208      C3209   1.359       .  A
N3208      H3216   1.043       .  S
C3209      C3210   1.399       .  A
C3210      H3214   1.082       .  S
C3217      C3222   1.382       .  A
C3217      C3218   1.405       .  A
C3217      N3223   1.345       .  A
C3218      C3219   1.404       .  A
C3218      H3229   1.082       .  S
C3219      C3228   1.379       .  A
C3219      C3220   1.382       .  A
C3220      C3221   1.410       .  A
C3220      N3226   1.350       .  A
C3221      C3222   1.410       .  A
C3221      H3230   1.082       .  S
C3222      C3225   1.385       .  A
N3223      C3224   1.359       .  A
N3223      H3233   1.044       .  S
C3224      C3225   1.402       .  A
C3225      H3231   1.081       .  S
N3226      C3227   1.360       .  A
N3226      H3234   1.044       .  S
C3227      C3228   1.400       .  A
C3228      H3232   1.082       .  S
C3235      C3240   1.383   1_455  A
C3235      C3236   1.405       .  A
C3235      N3241   1.343       .  A
C3236      C3237   1.403       .  A
C3236      H3247   1.082       .  S
C3237      C3246   1.381       .  A
C3237      C3238   1.383       .  A
C3238      C3239   1.406   1_455  A
C3238      N3244   1.343       .  A
C3239      C3240   1.404       .  A
C3239      H3248   1.082       .  S
C3240      C3243   1.381       .  A
N3241      C3242   1.358   1_455  A
N3241      H3251   1.044       .  S
C3242      C3243   1.396       .  A
C3243      H3249   1.082       .  S
N3244      C3245   1.359       .  A
N3244      H3252   1.044       .  S
C3245      C3246   1.397       .  A
C3246      H3250   1.081       .  S
C3253      C3258   1.384       .  A
C3253      C3254   1.406       .  A
C3253      N3259   1.348       .  A
C3254      C3255   1.406       .  A
C3254      H3265   1.082       .  S
C3255      C3264   1.380       .  A
C3255      C3256   1.383       .  A
C3256      C3257   1.408       .  A
C3256      N3262   1.348       .  A
C3257      C3258   1.408       .  A
C3257      H3266   1.082       .  S
C3258      C3261   1.381       .  A
N3259      C3260   1.357       .  A
N3259      H3269   1.045       .  S
C3260      C3261   1.399       .  A
C3261      H3267   1.082       .  S
N3262      C3263   1.359       .  A
N3262      H3270   1.044       .  S
C3263      C3264   1.398       .  A
C3264      H3268   1.082       .  S
C3271      C3276   1.383       .  A
C3271      C3272   1.404   1_455  A
C3271      N3277   1.344       .  A
C3272      C3273   1.403   1_565  A
C3272      H3283   1.082       .  S
C3273      C3282   1.379       .  A
C3273      C3274   1.382   1_655  A
C3274      C3275   1.406       .  A
C3274      N3280   1.345   1_455  A
C3275      C3276   1.406   1_545  A
C3275      H3284   1.082       .  S
C3276      C3279   1.380       .  A
N3277      C3278   1.359       .  A
N3277      H3287   1.043       .  S
C3278      C3279   1.401       .  A
C3279      H3285   1.083       .  S
N3280      C3281   1.359       .  A
N3280      H3288   1.045       .  S
C3281      C3282   1.400       .  A
C3282      H3286   1.081       .  S
C3289      C3294   1.384       .  A
C3289      C3290   1.405       .  A
C3289      N3295   1.343       .  A
C3290      C3291   1.403       .  A
C3290      H3301   1.082       .  S
C3291      C3300   1.380       .  A
C3291      C3292   1.383       .  A
C3292      C3293   1.405       .  A
C3292      N3298   1.343       .  A
C3293      C3294   1.403       .  A
C3293      H3302   1.082       .  S
C3294      C3297   1.381       .  A
N3295      C3296   1.356       .  A
N3295      H3305   1.045       .  S
C3296      C3297   1.395       .  A
C3297      H3303   1.082       .  S
N3298      C3299   1.358       .  A
N3298      H3306   1.044       .  S
C3299      C3300   1.398       .  A
C3300      H3304   1.082       .  S
C3307      C3312   1.383       .  A
C3307      C3308   1.405       .  A
C3307      N3313   1.342       .  A
C3308      C3309   1.404       .  A
C3308      H3319   1.082       .  S
C3309      C3318   1.380       .  A
C3309      C3310   1.383       .  A
C3310      C3311   1.406       .  A
C3310      N3316   1.344       .  A
C3311      C3312   1.404       .  A
C3311      H3320   1.082       .  S
C3312      C3315   1.381       .  A
N3313      C3314   1.358       .  A
N3313      H3323   1.044       .  S
C3314      C3315   1.397       .  A
C3315      H3321   1.082       .  S
N3316      C3317   1.358       .  A
N3316      H3324   1.043       .  S
C3317      C3318   1.399       .  A
C3318      H3322   1.082       .  S
C3325      C3330   1.384   1_565  A
C3325      C3326   1.399       .  A
C3325      N3331   1.337   1_565  A
C3326      C3327   1.396       .  A
C3326      H3337   1.082       .  S
C3327      C3336   1.374       .  A
C3327      C3328   1.384       .  A
C3328      C3329   1.407   1_565  A
C3328      N3334   1.342       .  A
C3329      C3330   1.405       .  A
C3329      H3338   1.082       .  S
C3330      C3333   1.383       .  A
N3331      C3332   1.355       .  A
N3331      H3341   1.044   1_545  S
C3332      C3333   1.399       .  A
C3333      H3339   1.082       .  S
N3334      C3335   1.359       .  A
N3334      H3342   1.044       .  S
C3335      C3336   1.390       .  A
C3336      H3340   1.082       .  S
C3343      C3348   1.384       .  A
C3343      C3344   1.404       .  A
C3343      N3349   1.343       .  A
C3344      C3345   1.403       .  A
C3344      H3355   1.082       .  S
C3345      C3354   1.378       .  A
C3345      C3346   1.382       .  A
C3346      C3347   1.408       .  A
C3346      N3352   1.347       .  A
C3347      C3348   1.408       .  A
C3347      H3356   1.082       .  S
C3348      C3351   1.385       .  A
N3349      C3350   1.356       .  A
N3349      H3359   1.045       .  S
C3350      C3351   1.397       .  A
C3351      H3357   1.082       .  S
N3352      C3353   1.360       .  A
N3352      H3360   1.044       .  S
C3353      C3354   1.398       .  A
C3354      H3358   1.081       .  S
C3361      C3366   1.383       .  A
C3361      C3362   1.405       .  A
C3361      N3367   1.343       .  A
C3362      C3363   1.403   1_565  A
C3362      H3373   1.082       .  S
C3363      C3372   1.378       .  A
C3363      C3364   1.383       .  A
C3364      C3365   1.404       .  A
C3364      N3370   1.344       .  A
C3365      C3366   1.403   1_545  A
C3365      H3374   1.082       .  S
C3366      C3369   1.379       .  A
N3367      C3368   1.358       .  A
N3367      H3377   1.045       .  S
C3368      C3369   1.401       .  A
C3369      H3375   1.081       .  S
N3370      C3371   1.359       .  A
N3370      H3378   1.043       .  S
C3371      C3372   1.398       .  A
C3372      H3376   1.082       .  S
C3379      C3384   1.383       .  A
C3379      C3380   1.407       .  A
C3379      N3385   1.347       .  A
C3380      C3381   1.407       .  A
C3380      H3391   1.082       .  S
C3381      C3390   1.381       .  A
C3381      C3382   1.383       .  A
C3382      C3383   1.407       .  A
C3382      N3388   1.348       .  A
C3383      C3384   1.407       .  A
C3383      H3392   1.082       .  S
C3384      C3387   1.382       .  A
N3385      C3386   1.360       .  A
N3385      H3395   1.044       .  S
C3386      C3387   1.398       .  A
C3387      H3393   1.082       .  S
N3388      C3389   1.358       .  A
N3388      H3396   1.044       .  S
C3389      C3390   1.401       .  A
C3390      H3394   1.082       .  S
C3397      C3402   1.384       .  A
C3397      C3398   1.410       .  A
C3397      N3403   1.352       .  A
C3398      C3399   1.411       .  A
C3398      H3409   1.082       .  S
C3399      C3408   1.384       .  A
C3399      C3400   1.382       .  A
C3400      C3401   1.403       .  A
C3400      N3406   1.345       .  A
C3401      C3402   1.403       .  A
C3401      H3410   1.082       .  S
C3402      C3405   1.375       .  A
N3403      C3404   1.359       .  A
N3403      H3413   1.044       .  S
C3404      C3405   1.396       .  A
C3405      H3411   1.083       .  S
N3406      C3407   1.358       .  A
N3406      H3414   1.043       .  S
C3407      C3408   1.404       .  A
C3408      H3412   1.082       .  S
C3415      C3420   1.381       .  A
C3415      C3416   1.409       .  A
C3415      N3421   1.349       .  A
C3416      C3417   1.409       .  A
C3416      H3427   1.082       .  S
C3417      C3426   1.384       .  A
C3417      C3418   1.382       .  A
C3418      C3419   1.406       .  A
C3418      N3424   1.345       .  A
C3419      C3420   1.405       .  A
C3419      H3428   1.082       .  S
C3420      C3423   1.379       .  A
N3421      C3422   1.361       .  A
N3421      H3431   1.043       .  S
C3422      C3423   1.401       .  A
C3423      H3429   1.081       .  S
N3424      C3425   1.360       .  A
N3424      H3432   1.043       .  S
C3425      C3426   1.402       .  A
C3426      H3430   1.081       .  S
C3433      C3438   1.383       .  A
C3433      C3434   1.405   1_455  A
C3433      N3439   1.346       .  A
C3434      C3435   1.405       .  A
C3434      H3445   1.082       .  S
C3435      C3444   1.379       .  A
C3435      C3436   1.383   1_655  A
C3436      C3437   1.404       .  A
C3436      N3442   1.344   1_455  A
C3437      C3438   1.404       .  A
C3437      H3446   1.082       .  S
C3438      C3441   1.378       .  A
N3439      C3440   1.360       .  A
N3439      H3449   1.042       .  S
C3440      C3441   1.399       .  A
C3441      H3447   1.082       .  S
N3442      C3443   1.357       .  A
N3442      H3450   1.045       .  S
C3443      C3444   1.402       .  A
C3444      H3448   1.080       .  S
C3451      C3456   1.384       .  A
C3451      C3452   1.402       .  A
C3451      N3457   1.344       .  A
C3452      C3453   1.402       .  A
C3452      H3463   1.082       .  S
C3453      C3462   1.374       .  A
C3453      C3454   1.384       .  A
C3454      C3455   1.404       .  A
C3454      N3460   1.346       .  A
C3455      C3456   1.404       .  A
C3455      H3464   1.082       .  S
C3456      C3459   1.376       .  A
N3457      C3458   1.355       .  A
N3457      H3467   1.044       .  S
C3458      C3459   1.399       .  A
C3459      H3465   1.082       .  S
N3460      C3461   1.356       .  A
N3460      H3468   1.044       .  S
C3461      C3462   1.397       .  A
C3462      H3466   1.082       .  S
C3469      C3474   1.384       .  A
C3469      C3470   1.403       .  A
C3469      N3475   1.340       .  A
C3470      C3471   1.400       .  A
C3470      H3481   1.082       .  S
C3471      C3480   1.378       .  A
C3471      C3472   1.382       .  A
C3472      C3473   1.409       .  A
C3472      N3478   1.345       .  A
C3473      C3474   1.407       .  A
C3473      H3482   1.082       .  S
C3474      C3477   1.388       .  A
N3475      C3476   1.355       .  A
N3475      H3485   1.045       .  S
C3476      C3477   1.399       .  A
C3477      H3483   1.082       .  S
N3478      C3479   1.361       .  A
N3478      H3486   1.044       .  S
C3479      C3480   1.397       .  A
C3480      H3484   1.081       .  S
C3487      C3492   1.384       .  A
C3487      C3488   1.410       .  A
C3487      N3493   1.350       .  A
C3488      C3489   1.409       .  A
C3488      H3499   1.082       .  S
C3489      C3498   1.388       .  A
C3489      C3490   1.384       .  A
C3490      C3491   1.404       .  A
C3490      N3496   1.343       .  A
C3491      C3492   1.403       .  A
C3491      H3500   1.083       .  S
C3492      C3495   1.378       .  A
N3493      C3494   1.358       .  A
N3493      H3503   1.045       .  S
C3494      C3495   1.396       .  A
C3495      H3501   1.083       .  S
N3496      C3497   1.357       .  A
N3496      H3504   1.045       .  S
C3497      C3498   1.398       .  A
C3498      H3502   1.082       .  S
C3505      C3510   1.384       .  A
C3505      C3506   1.401       .  A
C3505      N3511   1.341       .  A
C3506      C3507   1.399       .  A
C3506      H3517   1.082       .  S
C3507      C3516   1.375       .  A
C3507      C3508   1.382       .  A
C3508      C3509   1.410       .  A
C3508      N3514   1.347       .  A
C3509      C3510   1.409       .  A
C3509      H3518   1.082       .  S
C3510      C3513   1.387       .  A
N3511      C3512   1.355       .  A
N3511      H3521   1.045       .  S
C3512      C3513   1.400       .  A
C3513      H3519   1.082       .  S
N3514      C3515   1.361       .  A
N3514      H3522   1.044       .  S
C3515      C3516   1.395       .  A
C3516      H3520   1.081       .  S
C3523      C3528   1.384       .  A
C3523      C3524   1.406       .  A
C3523      N3529   1.346       .  A
C3524      C3525   1.406       .  A
C3524      H3535   1.082       .  S
C3525      C3534   1.383       .  A
C3525      C3526   1.384       .  A
C3526      C3527   1.408       .  A
C3526      N3532   1.347       .  A
C3527      C3528   1.406       .  A
C3527      H3536   1.082       .  S
C3528      C3531   1.382       .  A
N3529      C3530   1.356       .  A
N3529      H3539   1.045       .  S
C3530      C3531   1.397       .  A
C3531      H3537   1.082       .  S
N3532      C3533   1.358       .  A
N3532      H3540   1.045       .  S
C3533      C3534   1.397       .  A
C3534      H3538   1.082       .  S
C3541      C3546   1.383       .  A
C3541      C3542   1.410       .  A
C3541      N3547   1.350       .  A
C3542      C3543   1.410       .  A
C3542      H3553   1.082       .  S
C3543      C3552   1.385       .  A
C3543      C3544   1.382       .  A
C3544      C3545   1.404       .  A
C3544      N3550   1.345       .  A
C3545      C3546   1.404       .  A
C3545      H3554   1.082       .  S
C3546      C3549   1.379       .  A
N3547      C3548   1.359       .  A
N3547      H3557   1.045       .  S
C3548      C3549   1.396       .  A
C3549      H3555   1.082       .  S
N3550      C3551   1.359       .  A
N3550      H3558   1.043       .  S
C3551      C3552   1.403       .  A
C3552      H3556   1.082       .  S
C3559      C3564   1.385       .  A
C3559      C3560   1.402       .  A
C3559      N3565   1.342       .  A
C3560      C3561   1.401       .  A
C3560      H3571   1.082       .  S
C3561      C3570   1.375       .  A
C3561      C3562   1.385       .  A
C3562      C3563   1.401       .  A
C3562      N3568   1.341       .  A
C3563      C3564   1.400       .  A
C3563      H3572   1.082       .  S
C3564      C3567   1.375       .  A
N3565      C3566   1.354       .  A
N3565      H3575   1.045       .  S
C3566      C3567   1.393       .  A
C3567      H3573   1.082       .  S
N3568      C3569   1.353       .  A
N3568      H3576   1.045       .  S
C3569      C3570   1.393       .  A
C3570      H3574   1.082       .  S
C3577      C3582   1.384       .  A
C3577      C3578   1.409       .  A
C3577      N3583   1.347       .  A
C3578      C3579   1.407       .  A
C3578      H3589   1.082       .  S
C3579      C3588   1.387       .  A
C3579      C3580   1.384       .  A
C3580      C3581   1.405       .  A
C3580      N3586   1.342       .  A
C3581      C3582   1.404       .  A
C3581      H3590   1.082       .  S
C3582      C3585   1.381       .  A
N3583      C3584   1.357       .  A
N3583      H3593   1.045       .  S
C3584      C3585   1.397       .  A
C3585      H3591   1.083       .  S
N3586      C3587   1.356       .  A
N3586      H3594   1.045       .  S
C3587      C3588   1.398       .  A
C3588      H3592   1.082       .  S
C3595      C3600   1.385       .  A
C3595      C3596   1.402       .  A
C3595      N3601   1.341       .  A
C3596      C3597   1.400       .  A
C3596      H3607   1.082       .  S
C3597      C3606   1.376       .  A
C3597      C3598   1.385       .  A
C3598      C3599   1.403       .  A
C3598      N3604   1.342       .  A
C3599      C3600   1.402       .  A
C3599      H3608   1.082       .  S
C3600      C3603   1.378       .  A
N3601      C3602   1.354       .  A
N3601      H3611   1.045       .  S
C3602      C3603   1.394       .  A
C3603      H3609   1.082       .  S
N3604      C3605   1.355       .  A
N3604      H3612   1.045       .  S
C3605      C3606   1.392       .  A
C3606      H3610   1.082       .  S
C3613      C3618   1.384       .  A
C3613      C3614   1.404       .  A
C3613      N3619   1.343       .  A
C3614      C3615   1.402       .  A
C3614      H3625   1.082       .  S
C3615      C3624   1.380       .  A
C3615      C3616   1.383       .  A
C3616      C3617   1.408       .  A
C3616      N3622   1.345       .  A
C3617      C3618   1.406       .  A
C3617      H3626   1.082       .  S
C3618      C3621   1.385       .  A
N3619      C3620   1.356       .  A
N3619      H3629   1.045       .  S
C3620      C3621   1.397       .  A
C3621      H3627   1.082       .  S
N3622      C3623   1.359       .  A
N3622      H3630   1.044       .  S
C3623      C3624   1.397       .  A
C3624      H3628   1.082       .  S
C3631      C3636   1.384       .  A
C3631      C3632   1.407       .  A
C3631      N3637   1.348       .  A
C3632      C3633   1.407       .  A
C3632      H3643   1.082       .  S
C3633      C3642   1.383       .  A
C3633      C3634   1.385       .  A
C3634      C3635   1.404       .  A
C3634      N3640   1.344       .  A
C3635      C3636   1.403       .  A
C3635      H3644   1.083       .  S
C3636      C3639   1.377       .  A
N3637      C3638   1.357       .  A
N3637      H3647   1.045       .  S
C3638      C3639   1.395       .  A
C3639      H3645   1.083       .  S
N3640      C3641   1.356       .  A
N3640      H3648   1.045       .  S
C3641      C3642   1.396       .  A
C3642      H3646   1.082       .  S
C3649      C3654   1.384       .  A
C3649      C3650   1.412       .  A
C3649      N3655   1.349       .  A
C3650      C3651   1.411       .  A
C3650      H3661   1.082       .  S
C3651      C3660   1.391       .  A
C3651      C3652   1.384       .  A
C3652      C3653   1.402       .  A
C3652      N3658   1.341       .  A
C3653      C3654   1.400       .  A
C3653      H3662   1.082       .  S
C3654      C3657   1.378       .  A
N3655      C3656   1.359       .  A
N3655      H3665   1.045       .  S
C3656      C3657   1.394       .  A
C3657      H3663   1.082       .  S
N3658      C3659   1.355       .  A
N3658      H3666   1.045       .  S
C3659      C3660   1.401       .  A
C3660      H3664   1.082       .  S
C3667      C3672   1.384       .  A
C3667      C3668   1.403       .  A
C3667      N3673   1.343       .  A
C3668      C3669   1.402       .  A
C3668      H3679   1.082       .  S
C3669      C3678   1.377       .  A
C3669      C3670   1.382       .  A
C3670      C3671   1.408       .  A
C3670      N3676   1.347       .  A
C3671      C3672   1.406       .  A
C3671      H3680   1.082       .  S
C3672      C3675   1.384       .  A
N3673      C3674   1.356       .  A
N3673      H3683   1.045       .  S
C3674      C3675   1.396       .  A
C3675      H3681   1.082       .  S
N3676      C3677   1.360       .  A
N3676      H3684   1.044       .  S
C3677      C3678   1.399       .  A
C3678      H3682   1.081       .  S
C3685      C3690   1.385       .  A
C3685      C3686   1.402       .  A
C3685      N3691   1.342       .  A
C3686      C3687   1.401       .  A
C3686      H3697   1.082       .  S
C3687      C3696   1.378       .  A
C3687      C3688   1.385       .  A
C3688      C3689   1.404       .  A
C3688      N3694   1.343       .  A
C3689      C3690   1.403       .  A
C3689      H3698   1.082       .  S
C3690      C3693   1.379       .  A
N3691      C3692   1.354       .  A
N3691      H3701   1.045       .  S
C3692      C3693   1.395       .  A
C3693      H3699   1.082       .  S
N3694      C3695   1.355       .  A
N3694      H3702   1.045       .  S
C3695      C3696   1.393       .  A
C3696      H3700   1.082       .  S
C3703      C3708   1.384       .  A
C3703      C3704   1.404       .  A
C3703      N3709   1.343       .  A
C3704      C3705   1.403       .  A
C3704      H3715   1.083       .  S
C3705      C3714   1.379       .  A
C3705      C3706   1.384       .  A
C3706      C3707   1.409       .  A
C3706      N3712   1.348       .  A
C3707      C3708   1.408       .  A
C3707      H3716   1.082       .  S
C3708      C3711   1.386       .  A
N3709      C3710   1.356       .  A
N3709      H3719   1.045       .  S
C3710      C3711   1.399       .  A
C3711      H3717   1.082       .  S
N3712      C3713   1.358       .  A
N3712      H3720   1.045       .  S
C3713      C3714   1.395       .  A
C3714      H3718   1.083       .  S
C3721      C3726   1.384       .  A
C3721      C3722   1.410       .  A
C3721      N3727   1.351       .  A
C3722      C3723   1.410       .  A
C3722      H3733   1.082       .  S
C3723      C3732   1.384       .  A
C3723      C3724   1.382       .  A
C3724      C3725   1.404       .  A
C3724      N3730   1.345       .  A
C3725      C3726   1.404       .  A
C3725      H3734   1.082       .  S
C3726      C3729   1.378       .  A
N3727      C3728   1.359       .  A
N3727      H3737   1.044       .  S
C3728      C3729   1.396       .  A
C3729      H3735   1.082       .  S
N3730      C3731   1.359       .  A
N3730      H3738   1.043       .  S
C3731      C3732   1.403       .  A
C3732      H3736   1.082       .  S
C3739      C3744   1.384       .  A
C3739      C3740   1.405       .  A
C3739      N3745   1.344       .  A
C3740      C3741   1.404       .  A
C3740      H3751   1.082       .  S
C3741      C3750   1.380       .  A
C3741      C3742   1.384       .  A
C3742      C3743   1.409       .  A
C3742      N3748   1.347       .  A
C3743      C3744   1.408       .  A
C3743      H3752   1.082       .  S
C3744      C3747   1.386       .  A
N3745      C3746   1.356       .  A
N3745      H3755   1.045       .  S
C3746      C3747   1.399       .  A
C3747      H3753   1.082       .  S
N3748      C3749   1.358       .  A
N3748      H3756   1.045       .  S
C3749      C3750   1.396       .  A
C3750      H3754   1.083       .  S
C3757      C3762   1.386       .  A
C3757      C3758   1.402       .  A
C3757      N3763   1.342       .  A
C3758      C3759   1.400       .  A
C3758      H3769   1.083       .  S
C3759      C3768   1.376       .  A
C3759      C3760   1.386       .  A
C3760      C3761   1.401       .  A
C3760      N3766   1.341       .  A
C3761      C3762   1.400       .  A
C3761      H3770   1.082       .  S
C3762      C3765   1.376       .  A
N3763      C3764   1.354       .  A
N3763      H3773   1.045       .  S
C3764      C3765   1.393       .  A
C3765      H3771   1.082       .  S
N3766      C3767   1.353       .  A
N3766      H3774   1.045       .  S
C3767      C3768   1.392       .  A
C3768      H3772   1.083       .  S
C3775      C3780   1.384       .  A
C3775      C3776   1.401       .  A
C3775      N3781   1.342       .  A
C3776      C3777   1.400       .  A
C3776      H3787   1.082       .  S
C3777      C3786   1.374       .  A
C3777      C3778   1.384       .  A
C3778      C3779   1.409       .  A
C3778      N3784   1.349       .  A
C3779      C3780   1.409       .  A
C3779      H3788   1.082       .  S
C3780      C3783   1.385       .  A
N3781      C3782   1.355       .  A
N3781      H3791   1.045       .  S
C3782      C3783   1.398       .  A
C3783      H3789   1.082       .  S
N3784      C3785   1.358       .  A
N3784      H3792   1.045       .  S
C3785      C3786   1.393       .  A
C3786      H3790   1.083       .  S
C3793      C3798   1.384       .  A
C3793      C3794   1.409       .  A
C3793      N3799   1.350       .  A
C3794      C3795   1.409       .  A
C3794      H3805   1.082       .  S
C3795      C3804   1.383       .  A
C3795      C3796   1.383       .  A
C3796      C3797   1.406       .  A
C3796      N3802   1.348       .  A
C3797      C3798   1.407       .  A
C3797      H3806   1.082       .  S
C3798      C3801   1.381       .  A
N3799      C3800   1.358       .  A
N3799      H3809   1.045       .  S
C3800      C3801   1.398       .  A
C3801      H3807   1.082       .  S
N3802      C3803   1.358       .  A
N3802      H3810   1.044       .  S
C3803      C3804   1.401       .  A
C3804      H3808   1.082       .  S
C3811      C3816   1.383       .  A
C3811      C3812   1.404       .  A
C3811      N3817   1.345       .  A
C3812      C3813   1.404       .  A
C3812      H3823   1.082       .  S
C3813      C3822   1.379       .  A
C3813      C3814   1.384       .  A
C3814      C3815   1.408       .  A
C3814      N3820   1.349       .  A
C3815      C3816   1.408       .  A
C3815      H3824   1.082       .  S
C3816      C3819   1.383       .  A
N3817      C3818   1.357       .  A
N3817      H3827   1.044       .  S
C3818      C3819   1.400       .  A
C3819      H3825   1.082       .  S
N3820      C3821   1.357       .  A
N3820      H3828   1.045       .  S
C3821      C3822   1.396       .  A
C3822      H3826   1.082       .  S
C3829      C3834   1.384       .  A
C3829      C3830   1.404       .  A
C3829      N3835   1.348       .  A
C3830      C3831   1.406       .  A
C3830      H3841   1.082       .  S
C3831      C3840   1.375       .  A
C3831      C3832   1.384       .  A
C3832      C3833   1.404       .  A
C3832      N3838   1.348       .  A
C3833      C3834   1.405       .  A
C3833      H3842   1.082       .  S
C3834      C3837   1.374       .  A
N3835      C3836   1.357       .  A
N3835      H3845   1.044       .  S
C3836      C3837   1.398       .  A
C3837      H3843   1.082       .  S
N3838      C3839   1.357       .  A
N3838      H3846   1.044       .  S
C3839      C3840   1.400       .  A
C3840      H3844   1.082       .  S
C3847      C3852   1.382       .  A
C3847      C3848   1.407       .  A
C3847      N3853   1.346       .  A
C3848      C3849   1.405       .  A
C3848      H3859   1.082       .  S
C3849      C3858   1.383       .  A
C3849      C3850   1.384       .  A
C3850      C3851   1.405       .  A
C3850      N3856   1.343       .  A
C3851      C3852   1.404       .  A
C3851      H3860   1.082       .  S
C3852      C3855   1.379       .  A
N3853      C3854   1.359       .  A
N3853      H3863   1.044       .  S
C3854      C3855   1.400       .  A
C3855      H3861   1.081       .  S
N3856      C3857   1.357       .  A
N3856      H3864   1.045       .  S
C3857      C3858   1.395       .  A
C3858      H3862   1.082       .  S
C3865      C3870   1.382       .  A
C3865      C3866   1.409       .  A
C3865      N3871   1.349       .  A
C3866      C3867   1.409       .  A
C3866      H3877   1.082       .  S
C3867      C3876   1.384       .  A
C3867      C3868   1.383       .  A
C3868      C3869   1.405       .  A
C3868      N3874   1.345       .  A
C3869      C3870   1.404       .  A
C3869      H3878   1.082       .  S
C3870      C3873   1.377       .  A
N3871      C3872   1.360       .  A
N3871      H3881   1.044       .  S
C3872      C3873   1.399       .  A
C3873      H3879   1.082       .  S
N3874      C3875   1.359       .  A
N3874      H3882   1.044       .  S
C3875      C3876   1.401       .  A
C3876      H3880   1.082       .  S
C3883      C3888   1.381       .  A
C3883      C3884   1.412   1_655  A
C3883      N3889   1.350       .  A
C3884      C3885   1.412       .  A
C3884      H3895   1.082       .  S
C3885      C3894   1.386       .  A
C3885      C3886   1.382       .  A
C3886      C3887   1.399   1_455  A
C3886      N3892   1.341       .  A
C3887      C3888   1.399       .  A
C3887      H3896   1.083       .  S
C3888      C3891   1.371       .  A
N3889      C3890   1.362       .  A
N3889      H3899   1.044       .  S
C3890      C3891   1.398       .  A
C3891      H3897   1.081       .  S
N3892      C3893   1.357       .  A
N3892      H3900   1.044       .  S
C3893      C3894   1.403       .  A
C3894      H3898   1.082       .  S
C3901      C3906   1.384   1_655  A
C3901      C3902   1.400       .  A
C3901      N3907   1.342       .  A
C3902      C3903   1.401   1_655  A
C3902      H3913   1.083       .  S
C3903      C3912   1.371       .  A
C3903      C3904   1.384       .  A
C3904      C3905   1.402       .  A
C3904      N3910   1.344       .  A
C3905      C3906   1.402       .  A
C3905      H3914   1.082       .  S
C3906      C3909   1.373   1_455  A
N3907      C3908   1.354       .  A
N3907      H3917   1.044       .  S
C3908      C3909   1.395       .  A
C3909      H3915   1.082   1_655  S
N3910      C3911   1.356       .  A
N3910      H3918   1.044       .  S
C3911      C3912   1.398       .  A
C3912      H3916   1.082   1_455  S
C3919      C3924   1.384       .  A
C3919      C3920   1.408       .  A
C3919      N3925   1.349       .  A
C3920      C3921   1.409       .  A
C3920      H3931   1.082       .  S
C3921      C3930   1.384       .  A
C3921      C3922   1.383       .  A
C3922      C3923   1.404       .  A
C3922      N3928   1.346       .  A
C3923      C3924   1.404       .  A
C3923      H3932   1.082       .  S
C3924      C3927   1.377       .  A
N3925      C3926   1.357       .  A
N3925      H3935   1.045       .  S
C3926      C3927   1.395       .  A
C3927      H3933   1.083       .  S
N3928      C3929   1.357       .  A
N3928      H3936   1.044       .  S
C3929      C3930   1.401       .  A
C3930      H3934   1.082       .  S
C3937      C3942   1.382       .  A
C3937      C3938   1.406   1_554  A
C3937      N3943   1.345       .  A
C3938      C3939   1.405   1_655  A
C3938      H3949   1.082       .  S
C3939      C3948   1.380       .  A
C3939      C3940   1.382       .  A
C3940      C3941   1.407   1_556  A
C3940      N3946   1.345       .  A
C3941      C3942   1.406   1_455  A
C3941      H3950   1.082       .  S
C3942      C3945   1.382       .  A
N3943      C3944   1.358       .  A
N3943      H3953   1.045       .  S
C3944      C3945   1.403       .  A
C3945      H3951   1.081       .  S
N3946      C3947   1.361       .  A
N3946      H3954   1.043       .  S
C3947      C3948   1.399       .  A
C3948      H3952   1.082       .  S
C3955      C3960   1.382       .  A
C3955      C3956   1.409       .  A
C3955      N3961   1.350       .  A
C3956      C3957   1.409       .  A
C3956      H3967   1.082       .  S
C3957      C3966   1.384       .  A
C3957      C3958   1.383       .  A
C3958      C3959   1.405       .  A
C3958      N3964   1.345       .  A
C3959      C3960   1.404       .  A
C3959      H3968   1.082       .  S
C3960      C3963   1.377       .  A
N3961      C3962   1.360       .  A
N3961      H3971   1.044       .  S
C3962      C3963   1.400       .  A
C3963      H3969   1.082       .  S
N3964      C3965   1.359       .  A
N3964      H3972   1.044       .  S
C3965      C3966   1.400       .  A
C3966      H3970   1.081       .  S
C3973      C3978   1.384   1_556  A
C3973      C3974   1.402       .  A
C3973      N3979   1.347       .  A
C3974      C3975   1.403   1_556  A
C3974      H3985   1.082       .  S
C3975      C3984   1.372       .  A
C3975      C3976   1.384       .  A
C3976      C3977   1.404       .  A
C3976      N3982   1.348       .  A
C3977      C3978   1.406       .  A
C3977      H3986   1.082       .  S
C3978      C3981   1.375       .  A
N3979      C3980   1.355       .  A
N3979      H3989   1.044       .  S
C3980      C3981   1.400   1_556  A
C3981      H3987   1.082       .  S
N3982      C3983   1.357       .  A
N3982      H3990   1.044       .  S
C3983      C3984   1.398       .  A
C3984      H3988   1.082       .  S
C3991      C3996   1.382       .  A
C3991      C3992   1.404       .  A
C3991      N3997   1.345       .  A
C3992      C3993   1.404       .  A
C3992      H4003   1.082       .  S
C3993      C4002   1.378       .  A
C3993      C3994   1.384       .  A
C3994      C3995   1.410       .  A
C3994      N4000   1.350       .  A
C3995      C3996   1.410       .  A
C3995      H4004   1.082       .  S
C3996      C3999   1.386       .  A
N3997      C3998   1.359       .  A
N3997      H4007   1.043       .  S
C3998      C3999   1.402       .  A
C3999      H4005   1.082       .  S
N4000      C4001   1.358       .  A
N4000      H4008   1.045       .  S
C4001      C4002   1.396       .  A
C4002      H4006   1.083       .  S
C4009      C4014   1.382       .  A
C4009      C4010   1.409   1_554  A
C4009      N4015   1.349       .  A
C4010      C4011   1.409       .  A
C4010      H4021   1.082       .  S
C4011      C4020   1.381       .  A
C4011      C4012   1.383       .  A
C4012      C4013   1.407   1_556  A
C4012      N4018   1.349       .  A
C4013      C4014   1.407       .  A
C4013      H4022   1.082       .  S
C4014      C4017   1.381       .  A
N4015      C4016   1.361       .  A
N4015      H4025   1.045       .  S
C4016      C4017   1.402       .  A
C4017      H4023   1.081       .  S
N4018      C4019   1.360       .  A
N4018      H4026   1.043       .  S
C4019      C4020   1.401       .  A
C4020      H4024   1.082       .  S
C4027      C4032   1.382       .  A
C4027      C4028   1.406       .  A
C4027      N4033   1.347       .  A
C4028      C4029   1.406       .  A
C4028      H4039   1.082       .  S
C4029      C4038   1.379       .  A
C4029      C4030   1.384       .  A
C4030      C4031   1.406       .  A
C4030      N4036   1.348       .  A
C4031      C4032   1.407       .  A
C4031      H4040   1.082       .  S
C4032      C4035   1.381       .  A
N4033      C4034   1.359       .  A
N4033      H4043   1.044       .  S
C4034      C4035   1.400       .  A
C4035      H4041   1.082       .  S
N4036      C4037   1.356       .  A
N4036      H4044   1.045       .  S
C4037      C4038   1.398       .  A
C4038      H4042   1.083       .  S
C4045      C4050   1.382       .  A
C4045      C4046   1.404       .  A
C4045      N4051   1.343       .  A
C4046      C4047   1.403       .  A
C4046      H4057   1.082       .  S
C4047      C4056   1.378       .  A
C4047      C4048   1.382       .  A
C4048      C4049   1.409       .  A
C4048      N4054   1.348       .  A
C4049      C4050   1.408       .  A
C4049      H4058   1.082       .  S
C4050      C4053   1.385       .  A
N4051      C4052   1.359       .  A
N4051      H4061   1.043       .  S
C4052      C4053   1.401       .  A
C4053      H4059   1.081       .  S
N4054      C4055   1.360       .  A
N4054      H4062   1.043       .  S
C4055      C4056   1.401       .  A
C4056      H4060   1.081       .  S
C4063      C4068   1.383   1_554  A
C4063      C4064   1.405       .  A
C4063      N4069   1.341   1_554  A
C4064      C4065   1.403       .  A
C4064      H4075   1.082       .  S
C4065      C4074   1.381       .  A
C4065      C4066   1.383       .  A
C4066      C4067   1.404   1_554  A
C4066      N4072   1.341       .  A
C4067      C4068   1.401       .  A
C4067      H4076   1.082       .  S
C4068      C4071   1.380       .  A
N4069      C4070   1.358       .  A
N4069      H4079   1.044   1_556  S
C4070      C4071   1.395       .  A
C4071      H4077   1.082       .  S
N4072      C4073   1.357       .  A
N4072      H4080   1.044       .  S
C4073      C4074   1.396       .  A
C4074      H4078   1.082       .  S
C4081      C4086   1.384       .  A
C4081      C4082   1.405       .  A
C4081      N4087   1.344       .  A
C4082      C4083   1.403       .  A
C4082      H4093   1.082       .  S
C4083      C4092   1.379       .  A
C4083      C4084   1.381       .  A
C4084      C4085   1.412       .  A
C4084      N4090   1.350       .  A
C4085      C4086   1.412       .  A
C4085      H4094   1.082       .  S
C4086      C4089   1.390       .  A
N4087      C4088   1.356       .  A
N4087      H4097   1.045       .  S
C4088      C4089   1.401       .  A
C4089      H4095   1.082       .  S
N4090      C4091   1.363       .  A
N4090      H4098   1.044       .  S
C4091      C4092   1.399       .  A
C4092      H4096   1.081       .  S
C4099      C4104   1.382   1_455  A
C4099      C4100   1.407       .  A
C4099      N4105   1.345   1_455  A
C4100      C4101   1.405       .  A
C4100      H4111   1.082       .  S
C4101      C4110   1.381   1_554  A
C4101      C4102   1.382   1_554  A
C4102      C4103   1.407   1_455  A
C4102      N4108   1.346       .  A
C4103      C4104   1.406   1_556  A
C4103      H4112   1.082       .  S
C4104      C4107   1.383       .  A
N4105      C4106   1.359       .  A
N4105      H4115   1.045   1_655  S
C4106      C4107   1.402       .  A
C4107      H4113   1.081       .  S
N4108      C4109   1.361       .  A
N4108      H4116   1.042       .  S
C4109      C4110   1.400       .  A
C4110      H4114   1.082   1_556  S
C4117      C4122   1.383       .  A
C4117      C4118   1.409       .  A
C4117      N4123   1.347       .  A
C4118      C4119   1.408       .  A
C4118      H4129   1.082       .  S
C4119      C4128   1.384       .  A
C4119      C4120   1.384       .  A
C4120      C4121   1.406       .  A
C4120      N4126   1.346       .  A
C4121      C4122   1.405       .  A
C4121      H4130   1.082       .  S
C4122      C4125   1.381       .  A
N4123      C4124   1.359       .  A
N4123      H4133   1.044       .  S
C4124      C4125   1.398       .  A
C4125      H4131   1.082       .  S
N4126      C4127   1.355       .  A
N4126      H4134   1.045       .  S
C4127      C4128   1.400       .  A
C4128      H4132   1.082       .  S
C4135      C4140   1.383       .  A
C4135      C4136   1.407       .  A
C4135      N4141   1.349       .  A
C4136      C4137   1.408       .  A
C4136      H4147   1.082       .  S
C4137      C4146   1.382       .  A
C4137      C4138   1.383       .  A
C4138      C4139   1.405       .  A
C4138      N4144   1.346       .  A
C4139      C4140   1.405       .  A
C4139      H4148   1.082       .  S
C4140      C4143   1.376       .  A
N4141      C4142   1.358       .  A
N4141      H4151   1.044       .  S
C4142      C4143   1.401       .  A
C4143      H4149   1.082       .  S
N4144      C4145   1.359       .  A
N4144      H4152   1.044       .  S
C4145      C4146   1.400       .  A
C4146      H4150   1.081       .  S
C4153      C4158   1.383       .  A
C4153      C4154   1.403   1_455  A
C4153      N4159   1.341       .  A
C4154      C4155   1.400       .  A
C4154      H4165   1.082       .  S
C4155      C4164   1.378       .  A
C4155      C4156   1.383   1_655  A
C4156      C4157   1.406       .  A
C4156      N4162   1.343       .  A
C4157      C4158   1.404       .  A
C4157      H4166   1.082       .  S
C4158      C4161   1.382       .  A
N4159      C4160   1.357       .  A
N4159      H4169   1.044       .  S
C4160      C4161   1.397       .  A
C4161      H4167   1.082       .  S
N4162      C4163   1.359   1_455  A
N4162      H4170   1.044       .  S
C4163      C4164   1.394       .  A
C4164      H4168   1.082       .  S
C4171      C4176   1.382       .  A
C4171      C4172   1.402       .  A
C4171      N4177   1.344       .  A
C4172      C4173   1.401       .  A
C4172      H4183   1.082       .  S
C4173      C4182   1.374       .  A
C4173      C4174   1.384       .  A
C4174      C4175   1.410       .  A
C4174      N4180   1.352       .  A
C4175      C4176   1.411       .  A
C4175      H4184   1.082       .  S
C4176      C4179   1.384       .  A
N4177      C4178   1.357       .  A
N4177      H4187   1.043       .  S
C4178      C4179   1.404       .  A
C4179      H4185   1.081       .  S
N4180      C4181   1.359       .  A
N4180      H4188   1.044       .  S
C4181      C4182   1.394       .  A
C4182      H4186   1.083       .  S
C4189      C4194   1.381       .  A
C4189      C4190   1.412       .  A
C4189      N4195   1.350       .  A
C4190      C4191   1.411       .  A
C4190      H4201   1.082       .  S
C4191      C4200   1.387       .  A
C4191      C4192   1.382       .  A
C4192      C4193   1.403       .  A
C4192      N4198   1.344       .  A
C4193      C4194   1.402       .  A
C4193      H4202   1.082       .  S
C4194      C4197   1.377       .  A
N4195      C4196   1.362       .  A
N4195      H4205   1.044       .  S
C4196      C4197   1.399       .  A
C4197      H4203   1.081       .  S
N4198      C4199   1.359       .  A
N4198      H4206   1.043       .  S
C4199      C4200   1.404       .  A
C4200      H4204   1.081       .  S
C4207      C4212   1.383   1_556  A
C4207      C4208   1.406       .  A
C4207      N4213   1.346       .  A
C4208      C4209   1.405   1_556  A
C4208      H4219   1.082       .  S
C4209      C4218   1.381       .  A
C4209      C4210   1.382       .  A
C4210      C4211   1.406       .  A
C4210      N4216   1.346       .  A
C4211      C4212   1.406       .  A
C4211      H4220   1.082       .  S
C4212      C4215   1.380   1_554  A
N4213      C4214   1.360       .  A
N4213      H4223   1.043       .  S
C4214      C4215   1.400       .  A
C4215      H4221   1.082       .  S
N4216      C4217   1.359       .  A
N4216      H4224   1.045       .  S
C4217      C4218   1.401       .  A
C4218      H4222   1.080       .  S
C4225      C4230   1.384       .  A
C4225      C4226   1.410       .  A
C4225      N4231   1.351       .  A
C4226      C4227   1.410       .  A
C4226      H4237   1.082       .  S
C4227      C4236   1.385       .  A
C4227      C4228   1.383       .  A
C4228      C4229   1.405       .  A
C4228      N4234   1.346       .  A
C4229      C4230   1.405       .  A
C4229      H4238   1.082       .  S
C4230      C4233   1.380       .  A
N4231      C4232   1.359       .  A
N4231      H4241   1.045       .  S
C4232      C4233   1.396       .  A
C4233      H4239   1.082       .  S
N4234      C4235   1.356       .  A
N4234      H4242   1.044       .  S
C4235      C4236   1.401       .  A
C4236      H4240   1.082       .  S
C4243      C4248   1.382       .  A
C4243      C4244   1.405   1_455  A
C4243      N4249   1.347       .  A
C4244      C4245   1.405       .  A
C4244      H4255   1.082       .  S
C4245      C4254   1.378       .  A
C4245      C4246   1.383   1_655  A
C4246      C4247   1.405       .  A
C4246      N4252   1.347   1_455  A
C4247      C4248   1.405       .  A
C4247      H4256   1.083       .  S
C4248      C4251   1.377       .  A
N4249      C4250   1.358       .  A
N4249      H4259   1.045       .  S
C4250      C4251   1.403       .  A
C4251      H4257   1.081       .  S
N4252      C4253   1.360       .  A
N4252      H4260   1.043       .  S
C4253      C4254   1.398       .  A
C4254      H4258   1.082       .  S
C4261      C4266   1.382       .  A
C4261      C4262   1.410       .  A
C4261      N4267   1.348       .  A
C4262      C4263   1.409       .  A
C4262      H4273   1.082       .  S
C4263      C4272   1.387       .  A
C4263      C4264   1.382       .  A
C4264      C4265   1.403       .  A
C4264      N4270   1.342       .  A
C4265      C4266   1.402       .  A
C4265      H4274   1.082       .  S
C4266      C4269   1.377       .  A
N4267      C4268   1.361       .  A
N4267      H4277   1.043       .  S
C4268      C4269   1.399       .  A
C4269      H4275   1.081       .  S
N4270      C4271   1.359       .  A
N4270      H4278   1.043       .  S
C4271      C4272   1.401       .  A
C4272      H4276   1.082       .  S
C4279      C4284   1.383       .  A
C4279      C4280   1.404       .  A
C4279      N4285   1.341       .  A
C4280      C4281   1.402       .  A
C4280      H4291   1.082       .  S
C4281      C4290   1.380       .  A
C4281      C4282   1.383       .  A
C4282      C4283   1.406       .  A
C4282      N4288   1.342       .  A
C4283      C4284   1.403       .  A
C4283      H4292   1.082       .  S
C4284      C4287   1.381       .  A
N4285      C4286   1.357       .  A
N4285      H4295   1.044       .  S
C4286      C4287   1.396       .  A
C4287      H4293   1.082       .  S
N4288      C4289   1.359       .  A
N4288      H4296   1.044       .  S
C4289      C4290   1.396       .  A
C4290      H4294   1.082       .  S
C4297      C4302   1.383       .  A
C4297      C4298   1.406       .  A
C4297      N4303   1.344       .  A
C4298      C4299   1.404       .  A
C4298      H4309   1.082       .  S
C4299      C4308   1.380       .  A
C4299      C4300   1.382       .  A
C4300      C4301   1.410       .  A
C4300      N4306   1.349       .  A
C4301      C4302   1.410       .  A
C4301      H4310   1.082       .  S
C4302      C4305   1.389       .  A
N4303      C4304   1.357       .  A
N4303      H4313   1.045       .  S
C4304      C4305   1.400       .  A
C4305      H4311   1.082       .  S
N4306      C4307   1.361       .  A
N4306      H4314   1.044       .  S
C4307      C4308   1.399       .  A
C4308      H4312   1.081       .  S
C4315      C4320   1.384       .  A
C4315      C4316   1.410       .  A
C4315      N4321   1.351       .  A
C4316      C4317   1.410       .  A
C4316      H4327   1.082       .  S
C4317      C4326   1.384       .  A
C4317      C4318   1.383       .  A
C4318      C4319   1.404       .  A
C4318      N4324   1.346       .  A
C4319      C4320   1.404       .  A
C4319      H4328   1.082       .  S
C4320      C4323   1.377       .  A
N4321      C4322   1.359       .  A
N4321      H4331   1.045       .  S
C4322      C4323   1.395       .  A
C4323      H4329   1.082       .  S
N4324      C4325   1.356       .  A
N4324      H4332   1.044       .  S
C4325      C4326   1.402       .  A
C4326      H4330   1.082       .  S
C4333      C4338   1.385       .  A
C4333      C4334   1.406       .  A
C4333      N4339   1.347       .  A
C4334      C4335   1.406       .  A
C4334      H4345   1.082       .  S
C4335      C4344   1.381       .  A
C4335      C4336   1.385       .  A
C4336      C4337   1.403       .  A
C4336      N4342   1.345       .  A
C4337      C4338   1.402       .  A
C4337      H4346   1.082       .  S
C4338      C4341   1.376       .  A
N4339      C4340   1.357       .  A
N4339      H4349   1.045       .  S
C4340      C4341   1.394       .  A
C4341      H4347   1.082       .  S
N4342      C4343   1.354       .  A
N4342      H4350   1.045       .  S
C4343      C4344   1.396       .  A
C4344      H4348   1.082       .  S
C4351      C4356   1.385       .  A
C4351      C4352   1.402       .  A
C4351      N4357   1.342       .  A
C4352      C4353   1.401       .  A
C4352      H4363   1.082       .  S
C4353      C4362   1.378       .  A
C4353      C4354   1.383       .  A
C4354      C4355   1.409       .  A
C4354      N4360   1.347       .  A
C4355      C4356   1.408       .  A
C4355      H4364   1.082       .  S
C4356      C4359   1.385       .  A
N4357      C4358   1.355       .  A
N4357      H4367   1.045       .  S
C4358      C4359   1.398       .  A
C4359      H4365   1.082       .  S
N4360      C4361   1.361       .  A
N4360      H4368   1.044       .  S
C4361      C4362   1.395       .  A
C4362      H4366   1.082       .  S
C4369      C4374   1.385       .  A
C4369      C4370   1.401       .  A
C4369      N4375   1.341       .  A
C4370      C4371   1.400       .  A
C4370      H4381   1.082       .  S
C4371      C4380   1.375       .  A
C4371      C4372   1.385       .  A
C4372      C4373   1.401       .  A
C4372      N4378   1.342       .  A
C4373      C4374   1.400       .  A
C4373      H4382   1.082       .  S
C4374      C4377   1.376       .  A
N4375      C4376   1.354       .  A
N4375      H4385   1.045       .  S
C4376      C4377   1.393       .  A
C4377      H4383   1.082       .  S
N4378      C4379   1.354       .  A
N4378      H4386   1.045       .  S
C4379      C4380   1.392       .  A
C4380      H4384   1.082       .  S
C4387      C4392   1.384       .  A
C4387      C4388   1.404       .  A
C4387      N4393   1.344       .  A
C4388      C4389   1.403       .  A
C4388      H4399   1.082       .  S
C4389      C4398   1.378       .  A
C4389      C4390   1.382       .  A
C4390      C4391   1.409       .  A
C4390      N4396   1.348       .  A
C4391      C4392   1.408       .  A
C4391      H4400   1.082       .  S
C4392      C4395   1.385       .  A
N4393      C4394   1.357       .  A
N4393      H4403   1.045       .  S
C4394      C4395   1.397       .  A
C4395      H4401   1.082       .  S
N4396      C4397   1.360       .  A
N4396      H4404   1.044       .  S
C4397      C4398   1.398       .  A
C4398      H4402   1.081       .  S
C4405      C4410   1.384       .  A
C4405      C4406   1.401       .  A
C4405      N4411   1.341       .  A
C4406      C4407   1.400       .  A
C4406      H4417   1.082       .  S
C4407      C4416   1.376       .  A
C4407      C4408   1.383       .  A
C4408      C4409   1.412       .  A
C4408      N4414   1.351       .  A
C4409      C4410   1.412       .  A
C4409      H4418   1.082       .  S
C4410      C4413   1.389       .  A
N4411      C4412   1.353       .  A
N4411      H4421   1.045       .  S
C4412      C4413   1.401       .  A
C4413      H4419   1.082       .  S
N4414      C4415   1.361       .  A
N4414      H4422   1.045       .  S
C4415      C4416   1.393       .  A
C4416      H4420   1.082       .  S
C4423      C4428   1.385       .  A
C4423      C4424   1.404       .  A
C4423      N4429   1.343       .  A
C4424      C4425   1.403       .  A
C4424      H4435   1.082       .  S
C4425      C4434   1.379       .  A
C4425      C4426   1.385       .  A
C4426      C4427   1.405       .  A
C4426      N4432   1.345       .  A
C4427      C4428   1.404       .  A
C4427      H4436   1.082       .  S
C4428      C4431   1.381       .  A
N4429      C4430   1.355       .  A
N4429      H4439   1.045       .  S
C4430      C4431   1.394       .  A
C4431      H4437   1.082       .  S
N4432      C4433   1.356       .  A
N4432      H4440   1.045       .  S
C4433      C4434   1.394       .  A
C4434      H4438   1.082       .  S
C4441      C4446   1.384       .  A
C4441      C4442   1.409       .  A
C4441      N4447   1.350       .  A
C4442      C4443   1.409       .  A
C4442      H4453   1.082       .  S
C4443      C4452   1.383       .  A
C4443      C4444   1.384       .  A
C4444      C4445   1.401       .  A
C4444      N4450   1.343       .  A
C4445      C4446   1.401       .  A
C4445      H4454   1.082       .  S
C4446      C4449   1.375       .  A
N4447      C4448   1.358       .  A
N4447      H4457   1.045       .  S
C4448      C4449   1.394       .  A
C4449      H4455   1.083       .  S
N4450      C4451   1.355       .  A
N4450      H4458   1.044       .  S
C4451      C4452   1.400       .  A
C4452      H4456   1.082       .  S
C4459      C4464   1.384       .  A
C4459      C4460   1.406       .  A
C4459      N4465   1.347       .  A
C4460      C4461   1.406       .  A
C4460      H4471   1.082       .  S
C4461      C4470   1.381       .  A
C4461      C4462   1.385       .  A
C4462      C4463   1.404       .  A
C4462      N4468   1.345       .  A
C4463      C4464   1.404       .  A
C4463      H4472   1.082       .  S
C4464      C4467   1.379       .  A
N4465      C4466   1.357       .  A
N4465      H4475   1.045       .  S
C4466      C4467   1.395       .  A
C4467      H4473   1.082       .  S
N4468      C4469   1.356       .  A
N4468      H4476   1.045       .  S
C4469      C4470   1.396       .  A
C4470      H4474   1.082       .  S
C4477      C4482   1.384       .  A
C4477      C4478   1.407       .  A
C4477      N4483   1.345       .  A
C4478      C4479   1.405       .  A
C4478      H4489   1.082       .  S
C4479      C4488   1.382       .  A
C4479      C4480   1.383       .  A
C4480      C4481   1.407       .  A
C4480      N4486   1.346       .  A
C4481      C4482   1.406       .  A
C4481      H4490   1.082       .  S
C4482      C4485   1.384       .  A
N4483      C4484   1.357       .  A
N4483      H4493   1.045       .  S
C4484      C4485   1.397       .  A
C4485      H4491   1.082       .  S
N4486      C4487   1.359       .  A
N4486      H4494   1.044       .  S
C4487      C4488   1.398       .  A
C4488      H4492   1.082       .  S
C4495      C4500   1.385       .  A
C4495      C4496   1.400       .  A
C4495      N4501   1.341       .  A
C4496      C4497   1.400       .  A
C4496      H4507   1.082       .  S
C4497      C4506   1.374       .  A
C4497      C4498   1.385       .  A
C4498      C4499   1.402       .  A
C4498      N4504   1.342       .  A
C4499      C4500   1.401       .  A
C4499      H4508   1.082       .  S
C4500      C4503   1.376       .  A
N4501      C4502   1.353       .  A
N4501      H4511   1.045       .  S
C4502      C4503   1.394       .  A
C4503      H4509   1.082       .  S
N4504      C4505   1.354       .  A
N4504      H4512   1.045       .  S
C4505      C4506   1.393       .  A
C4506      H4510   1.083       .  S
C4513      C4518   1.385       .  A
C4513      C4514   1.405       .  A
C4513      N4519   1.348       .  A
C4514      C4515   1.405       .  A
C4514      H4525   1.082       .  S
C4515      C4524   1.377       .  A
C4515      C4516   1.385       .  A
C4516      C4517   1.404       .  A
C4516      N4522   1.347       .  A
C4517      C4518   1.404       .  A
C4517      H4526   1.082       .  S
C4518      C4521   1.377       .  A
N4519      C4520   1.356       .  A
N4519      H4529   1.045       .  S
C4520      C4521   1.395       .  A
C4521      H4527   1.082       .  S
N4522      C4523   1.355       .  A
N4522      H4530   1.045       .  S
C4523      C4524   1.395       .  A
C4524      H4528   1.082       .  S
C4531      C4536   1.384       .  A
C4531      C4532   1.404       .  A
C4531      N4537   1.343       .  A
C4532      C4533   1.402       .  A
C4532      H4543   1.082       .  S
C4533      C4542   1.378       .  A
C4533      C4534   1.383       .  A
C4534      C4535   1.410       .  A
C4534      N4540   1.349       .  A
C4535      C4536   1.409       .  A
C4535      H4544   1.082       .  S
C4536      C4539   1.386       .  A
N4537      C4538   1.356       .  A
N4537      H4547   1.045       .  S
C4538      C4539   1.399       .  A
C4539      H4545   1.082       .  S
N4540      C4541   1.360       .  A
N4540      H4548   1.044       .  S
C4541      C4542   1.396       .  A
C4542      H4546   1.082       .  S
C4549      C4554   1.385       .  A
C4549      C4550   1.402       .  A
C4549      N4555   1.341       .  A
C4550      C4551   1.400       .  A
C4550      H4561   1.083       .  S
C4551      C4560   1.376       .  A
C4551      C4552   1.384       .  A
C4552      C4553   1.408       .  A
C4552      N4558   1.347       .  A
C4553      C4554   1.407       .  A
C4553      H4562   1.082       .  S
C4554      C4557   1.384       .  A
N4555      C4556   1.355       .  A
N4555      H4565   1.045       .  S
C4556      C4557   1.397       .  A
C4557      H4563   1.082       .  S
N4558      C4559   1.357       .  A
N4558      H4566   1.045       .  S
C4559      C4560   1.394       .  A
C4560      H4564   1.083       .  S
C4567      C4572   1.386       .  A
C4567      C4568   1.400       .  A
C4567      N4573   1.341       .  A
C4568      C4569   1.399       .  A
C4568      H4579   1.082       .  S
C4569      C4578   1.374       .  A
C4569      C4570   1.385       .  A
C4570      C4571   1.404       .  A
C4570      N4576   1.344       .  A
C4571      C4572   1.403       .  A
C4571      H4580   1.082       .  S
C4572      C4575   1.378       .  A
N4573      C4574   1.353       .  A
N4573      H4583   1.045       .  S
C4574      C4575   1.394       .  A
C4575      H4581   1.082       .  S
N4576      C4577   1.356       .  A
N4576      H4584   1.045       .  S
C4577      C4578   1.392       .  A
C4578      H4582   1.082       .  S
C4585      C4590   1.383       .  A
C4585      C4586   1.408       .  A
C4585      N4591   1.347       .  A
C4586      C4587   1.407       .  A
C4586      H4597   1.082       .  S
C4587      C4596   1.384       .  A
C4587      C4588   1.383       .  A
C4588      C4589   1.409       .  A
C4588      N4594   1.348       .  A
C4589      C4590   1.408       .  A
C4589      H4598   1.082       .  S
C4590      C4593   1.387       .  A
N4591      C4592   1.358       .  A
N4591      H4601   1.045       .  S
C4592      C4593   1.399       .  A
C4593      H4599   1.082       .  S
N4594      C4595   1.359       .  A
N4594      H4602   1.044       .  S
C4595      C4596   1.399       .  A
C4596      H4600   1.082       .  S
C4603      C4608   1.385       .  A
C4603      C4604   1.400       .  A
C4603      N4609   1.341       .  A
C4604      C4605   1.399       .  A
C4604      H4615   1.082       .  S
C4605      C4614   1.374       .  A
C4605      C4606   1.385       .  A
C4606      C4607   1.404       .  A
C4606      N4612   1.343       .  A
C4607      C4608   1.403       .  A
C4607      H4616   1.082       .  S
C4608      C4611   1.378       .  A
N4609      C4610   1.353       .  A
N4609      H4619   1.045       .  S
C4610      C4611   1.394       .  A
C4611      H4617   1.082       .  S
N4612      C4613   1.355       .  A
N4612      H4620   1.045       .  S
C4613      C4614   1.392       .  A
C4614      H4618   1.082       .  S
C4621      C4626   1.384       .  A
C4621      C4622   1.404       .  A
C4621      N4627   1.343       .  A
C4622      C4623   1.403       .  A
C4622      H4633   1.082       .  S
C4623      C4632   1.380       .  A
C4623      C4624   1.384       .  A
C4624      C4625   1.411       .  A
C4624      N4630   1.350       .  A
C4625      C4626   1.411       .  A
C4625      H4634   1.082       .  S
C4626      C4629   1.389       .  A
N4627      C4628   1.356       .  A
N4627      H4637   1.045       .  S
C4628      C4629   1.401       .  A
C4629      H4635   1.082       .  S
N4630      C4631   1.358       .  A
N4630      H4638   1.045       .  S
C4631      C4632   1.396       .  A
C4632      H4636   1.083       .  S
C4639      C4644   1.384       .  A
C4639      C4640   1.406       .  A
C4639      N4645   1.344       .  A
C4640      C4641   1.404       .  A
C4640      H4651   1.082       .  S
C4641      C4650   1.382       .  A
C4641      C4642   1.384       .  A
C4642      C4643   1.407       .  A
C4642      N4648   1.345       .  A
C4643      C4644   1.405       .  A
C4643      H4652   1.082       .  S
C4644      C4647   1.383       .  A
N4645      C4646   1.356       .  A
N4645      H4655   1.045       .  S
C4646      C4647   1.396       .  A
C4647      H4653   1.082       .  S
N4648      C4649   1.357       .  A
N4648      H4656   1.045       .  S
C4649      C4650   1.395       .  A
C4650      H4654   1.082       .  S
