geometry optimzed in LAMMPS
_audit_creation_date              2020-11-30 
_audit_creation_method            'lammps2cif' 
_symmetry_space_group_name_H-M    'P1' 
_symmetry_Int_Tables_number       1 
_symmetry_cell_setting            triclinic 
loop_ 
_symmetry_equiv_pos_as_xyz 
  x,y,z 
_cell_length_a                    66.26292321 
_cell_length_b                    46.32772801260775 
_cell_length_c                    46.40752007210701 
_cell_angle_alpha                 90.15127104906792 
_cell_angle_beta                  90.33835932854998 
_cell_angle_gamma                 88.7074241748811 
loop_ 
_atom_site_label 
_atom_site_type_symbol 
_atom_site_fract_x 
_atom_site_fract_y 
_atom_site_fract_z 
_atom_site_charge 
O1          O  0.61342977  0.33002957  0.38600680    -0.77800
C2          C  0.56859714  0.38949194  0.34468473     0.83300
O3          O  0.63761402  0.34790322  0.29048706    -0.78900
O4          O  0.61451286  0.44725469  0.30849978    -0.80400
O5          O  0.63473632  0.42551889  0.40808776    -0.80200
O6          O  0.63797173  0.35275442  0.40907149    -0.78800
Zn7        Zn  0.60800690  0.35395951  0.34991005     1.55700
O8          O  0.61190702  0.44978012  0.38205348    -0.80200
Cd9        Cd  0.64233951  0.38914133  0.38389056     1.59700
Cd10       Cd  0.64324589  0.38532804  0.31363467     1.59600
O11         O  0.67308473  0.38945398  0.37412059    -0.80200
O12         O  0.62515118  0.38776323  0.34820650    -1.90700
Cd13       Cd  0.60783787  0.42395605  0.34569786     1.59900
O14         O  0.67360867  0.38419195  0.32633264    -0.80200
O15         O  0.57736061  0.41369789  0.34362139    -0.78800
C16         C  0.62510380  0.32777237  0.29416042     0.83700
C17         C  0.62606479  0.33162758  0.40676894     0.83400
O18         O  0.57844457  0.36574284  0.34775281    -0.77800
C19         C  0.62281043  0.44722768  0.40475977     0.84200
O20         O  0.61332755  0.32776317  0.31578266    -0.77900
C21         C  0.68273391  0.38620078  0.35056028     0.84300
C22         C  0.62606315  0.44239178  0.28698354     0.84600
O23         O  0.63772936  0.42010347  0.28574915    -0.80300
C24         C  0.61160532  0.15839228  0.15491091     0.87200
C25         C  0.61341596  0.12978689  0.17120320    -0.53000
C26         C  0.61203691  0.10573085  0.15445815     0.10100
C27         C  0.60910072  0.11227589  0.12194722     0.21100
C28         C  0.62727828  0.15665328  0.13082698    -0.53800
C29         C  0.62621356  0.13277768  0.11367130     0.10200
C30         C  0.59124385  0.15570709  0.13833195    -0.53300
C31         C  0.59002522  0.13176544  0.12104242     0.10800
H32         H  0.61521671  0.12864867  0.19447519     0.15300
H33         H  0.60819029  0.09269376  0.10818257     0.01000
H34         H  0.63856344  0.17299429  0.12781596     0.15600
H35         H  0.57822344  0.16996335  0.14029479     0.15400
C36         C  0.67399153  0.13179689  0.06778390     0.87200
C37         C  0.66599183  0.15974536  0.05362053    -0.53000
C38         C  0.64574232  0.16079929  0.04821729     0.10100
C39         C  0.63495255  0.13299769  0.05719190     0.21100
C40         C  0.66089099  0.12749857  0.09460101    -0.53800
C41         C  0.64054467  0.12874771  0.08942818     0.10200
C42         C  0.66672884  0.10737821  0.04784877    -0.53300
C43         C  0.64664185  0.10852701  0.04135726     0.10800
H44         H  0.67589907  0.17682907  0.04692910     0.15300
H45         H  0.61847167  0.13365805  0.05265659     0.01000
H46         H  0.66690325  0.12439844  0.11610027     0.15600
H47         H  0.67637269  0.09001922  0.03967007     0.15400
O48         O  0.83799242  0.11070861  0.08817548    -0.77800
C49         C  0.88630976  0.07517998  0.03583837     0.83300
O50         O  0.89465438  0.09910891  0.15560043    -0.78900
O51         O  0.93215441  0.13166601  0.07084617    -0.80400
O52         O  0.87321133  0.19529450  0.05638153    -0.80200
O53         O  0.83613245  0.15857052  0.08805840    -0.78800
Zn54       Zn  0.86772447  0.09922318  0.09212606     1.55700
O55         O  0.89757416  0.17101413  0.03368259    -0.80200
Cd56       Cd  0.86635649  0.16944882  0.09154302     1.59700
Cd57       Cd  0.90122952  0.13450446  0.12943218     1.59600
O58         O  0.87011590  0.19454098  0.12838936    -0.80200
O59         O  0.88423961  0.13374212  0.09301422    -1.90700
Cd60       Cd  0.90208537  0.13357127  0.05815624     1.59900
O61         O  0.89484484  0.17231963  0.15338822    -0.80200
O62         O  0.89718016  0.09728049  0.03238807    -0.78800
C63         C  0.88232898  0.07849631  0.15236357     0.83700
C64         C  0.82758281  0.13416637  0.08699863     0.83400
O65         O  0.87477643  0.07313070  0.05768271    -0.77800
C66         C  0.88579994  0.19307990  0.03571335     0.84200
O67         O  0.87164726  0.07636257  0.12948555    -0.77900
C68         C  0.88205714  0.19316602  0.15003889     0.84300
C69         C  0.94143387  0.13116060  0.09500167     0.84600
O70         O  0.93211263  0.13212497  0.11905768    -0.80300
C71         C  0.92252622  0.38413009  0.36588100     0.87200
C72         C  0.91834271  0.35641814  0.38254035    -0.53000
C73         C  0.89933285  0.35453898  0.39347805     0.10100
C74         C  0.88553292  0.38093174  0.38532679     0.21100
C75         C  0.90605055  0.38427219  0.34210033    -0.53800
C76         C  0.88660709  0.38267145  0.35176157     0.10200
C77         C  0.91596921  0.40935077  0.38536852    -0.53300
C78         C  0.89697472  0.40773072  0.39628713     0.10800
H79         H  0.92994773  0.33989480  0.38633959     0.15300
H80         H  0.87015581  0.38017728  0.39413347     0.01000
H81         H  0.90909150  0.38587546  0.31966563     0.15600
H82         H  0.92587386  0.42702778  0.39058719     0.15400
C83         C  0.83342461  0.39207260  0.31591031     0.87200
C84         C  0.83658480  0.36562207  0.29635249    -0.53000
C85         C  0.85566965  0.36153767  0.28605183     0.10100
C86         C  0.87051619  0.38426112  0.29762429     0.21100
C87         C  0.84926084  0.38791390  0.34030525    -0.53800
C88         C  0.86877225  0.38381348  0.33121621     0.10200
C89         C  0.84204686  0.41779362  0.29934709    -0.53300
C90         C  0.86120007  0.41383563  0.28881297     0.10800
H91         H  0.82444214  0.35114158  0.29119208     0.15300
H92         H  0.88581769  0.38057149  0.28946194     0.01000
H93         H  0.84537917  0.39010970  0.36283826     0.15600
H94         H  0.83435147  0.43838265  0.29754877     0.15400
O95         O  0.43308587  0.13279412  0.08150927    -0.77800
C96         C  0.38581958  0.17061163  0.02289629     0.83300
O97         O  0.37325597  0.15117644  0.13903993    -0.78900
O98         O  0.33847921  0.11276453  0.05459211    -0.80400
O99         O  0.39694317  0.05004530  0.04535495    -0.80200
O100        O  0.43326366  0.08471029  0.08213282    -0.78800
Zn101      Zn  0.40353176  0.14575432  0.07965195     1.55700
O102        O  0.37499137  0.07583566  0.01896777    -0.80200
Cd103      Cd  0.40269135  0.07560258  0.08124582     1.59700
Cd104      Cd  0.36814437  0.11363862  0.11529755     1.59600
O105        O  0.39709323  0.05176954  0.11830341    -0.80200
O106        O  0.38594695  0.11234969  0.08013622    -1.90700
Cd107      Cd  0.36890691  0.11264577  0.04403158     1.59900
O108        O  0.37456260  0.07853560  0.14272048    -0.80200
O109        O  0.37352148  0.14997417  0.01976285    -0.78800
C110        C  0.38633347  0.17072680  0.13600207     0.83700
C111        C  0.44255234  0.10849997  0.08253834     0.83400
O112        O  0.39813977  0.17115264  0.04415297    -0.77800
C113        C  0.38607041  0.05317735  0.02277285     0.84200
O114        O  0.39853036  0.17072587  0.11487145    -0.77900
C115        C  0.38620733  0.05627841  0.14052510     0.84300
C116        C  0.32884243  0.11322425  0.07829699     0.84600
O117        O  0.33775240  0.11345254  0.10279666    -0.80300
C118        C  0.39963158  0.33959373  0.27536079     0.87200
C119        C  0.41978601  0.34222344  0.29158438    -0.53000
C120        C  0.42098046  0.36592402  0.30905877     0.10100
C121        C  0.40160375  0.38488227  0.30953090     0.21100
C122        C  0.38360838  0.34070361  0.29937119    -0.53800
C123        C  0.38483529  0.36379217  0.31764856     0.10200
C124        C  0.39597871  0.36867167  0.26012532    -0.53300
C125        C  0.39747429  0.39232877  0.27750767     0.10800
H126        H  0.43244709  0.32726697  0.28840216     0.15300
H127        H  0.40259368  0.40408676  0.32380306     0.01000
H128        H  0.37139139  0.32576607  0.30116357     0.15600
H129        H  0.39307384  0.37054932  0.23714695     0.15400
C130        C  0.33601906  0.36349470  0.36192801     0.87200
C131        C  0.34210613  0.38786613  0.38233922    -0.53000
C132        C  0.36218404  0.38833058  0.38885429     0.10100
C133        C  0.37488145  0.36447586  0.37362891     0.21100
C134        C  0.34973718  0.36702543  0.33534044    -0.53800
C135        C  0.36992016  0.36790150  0.34125158     0.10200
C136        C  0.34459516  0.33553702  0.37553158    -0.53300
C137        C  0.36479923  0.33581467  0.38196935     0.10800
H138        H  0.33131553  0.40354731  0.39104791     0.15300
H139        H  0.39126329  0.36498005  0.37872199     0.01000
H140        H  0.34455734  0.36543686  0.31322221     0.15600
H141        H  0.33535643  0.31710424  0.38016168     0.15400
O142        O  0.11741120  0.43762937  0.28795513    -0.77800
C143        C  0.07228259  0.37762074  0.31886005     0.83300
O144        O  0.13849600  0.40692931  0.38458958    -0.78900
O145        O  0.11726675  0.31136510  0.34694369    -0.80400
O146        O  0.14325774  0.34328425  0.25730591    -0.80200
O147        O  0.14210556  0.41665616  0.26295964    -0.78800
Zn148      Zn  0.11178178  0.41113556  0.32151155     1.55700
O149        O  0.11726713  0.32030141  0.27613504    -0.80200
Cd150      Cd  0.14726161  0.37811680  0.28552117     1.59700
Cd151      Cd  0.14423822  0.37211443  0.35666498     1.59600
O152        O  0.17703951  0.37608013  0.29978819    -0.80200
O153        O  0.12866689  0.37620255  0.31955373    -1.90700
Cd154      Cd  0.11161157  0.34144770  0.31468262     1.59900
O155        O  0.17471360  0.37189653  0.34769919    -0.80200
O156        O  0.08146395  0.35337526  0.31617572    -0.78800
C157        C  0.12787698  0.43002904  0.38105078     0.83700
C158        C  0.12957318  0.43769783  0.26681703     0.83400
O159        O  0.08215830  0.40091753  0.32083750    -0.77800
C160        C  0.13049545  0.32303654  0.25660342     0.84200
O161        O  0.11731476  0.43381250  0.35826696    -0.77900
C162        C  0.18506318  0.37350873  0.32473292     0.84300
C163        C  0.12814726  0.31102029  0.36965335     0.84600
O164        O  0.13863377  0.33277007  0.37677256    -0.80300
C165        C  0.11264390  0.14864112  0.01315114     0.87200
C166        C  0.09181097  0.14836263  0.02786509    -0.53000
C167        C  0.08905532  0.12610159  0.04670171     0.10100
C168        C  0.10822460  0.10615147  0.04998937     0.21100
C169        C  0.12715710  0.14933568  0.03899391    -0.53800
C170        C  0.12549950  0.12702695  0.05801108     0.10200
C171        C  0.11513540  0.11850134  0.00000152    -0.53300
C172        C  0.11310942  0.09622195  0.01874245     0.10800
H173        H  0.07988345  0.16431651  0.02407131     0.15300
H174        H  0.10669956  0.08778126  0.06500211     0.01000
H175        H  0.13850220  0.16558037  0.04142973     0.15600
H176        H  0.11862335  0.11503418  0.97737731     0.15400
C177        C  0.17635694  0.12637398  0.09898136     0.87200
C178        C  0.17024683  0.10438018  0.12181022    -0.53000
C179        C  0.15049755  0.10605476  0.12977126     0.10100
C180        C  0.13807275  0.12951936  0.11332317     0.21100
C181        C  0.16131856  0.12091915  0.07374012    -0.53800
C182        C  0.14127322  0.12270678  0.08103099     0.10200
C183        C  0.16929093  0.15601539  0.11033624    -0.53300
C184        C  0.14947972  0.15796990  0.11822876     0.10800
H185        H  0.18077997  0.08847342  0.13083076     0.15300
H186        H  0.12213397  0.13087007  0.11992070     0.01000
H187        H  0.16538618  0.11830103  0.05137123     0.15600
H188        H  0.17957433  0.17373457  0.11317756     0.15400
C189        C  0.11644562  0.27231102  0.19515059    -0.11200
C190        C  0.13412686  0.25524489  0.19297669     0.11400
C191        C  0.15118250  0.26206017  0.21006580    -0.03000
C192        C  0.14954724  0.28494210  0.23005524    -0.05700
C193        C  0.13154388  0.30114753  0.23322937    -0.16500
C194        C  0.11483832  0.29527445  0.21506997     0.02400
C195        C  0.13465760  0.23079778  0.17204622     0.12400
C196        C  0.17103051  0.24527128  0.20704741     0.63000
H197        H  0.16224455  0.29004665  0.24381275     0.12400
C198        C  0.09559941  0.31362390  0.21628958     0.55100
H199        H  0.10380635  0.26723832  0.18127579     0.08200
C200        C  0.12740292  0.20311660  0.17886155    -0.05600
C201        C  0.13066365  0.18025031  0.15914200    -0.06300
C202        C  0.14106318  0.18425777  0.13318717    -0.15900
C203        C  0.14597593  0.21287730  0.12503283    -0.01500
C204        C  0.14307818  0.23546042  0.14494713    -0.09100
C205        C  0.11688432  0.19764213  0.20723740     0.65200
H206        H  0.12618681  0.15867994  0.16476035     0.10700
C207        C  0.15412824  0.22108637  0.09577014     0.63600
H208        H  0.14772078  0.25704909  0.13942683     0.08000
F209        F  0.08596460  0.30932674  0.24219211    -0.19400
F210        F  0.08233101  0.30679786  0.19427881    -0.15700
F211        F  0.10018852  0.34248891  0.21370215    -0.19200
F212        F  0.17873363  0.24934698  0.17977837    -0.22500
F213        F  0.16806602  0.21614269  0.21123404    -0.24000
F214        F  0.18528738  0.25416676  0.22690045    -0.18000
F215        F  0.14306216  0.24440613  0.08502873    -0.20500
F216        F  0.15287279  0.19909499  0.07582642    -0.21700
F217        F  0.17406362  0.22888892  0.09863687    -0.18800
F218        F  0.11131525  0.16914753  0.20986276    -0.18900
F219        F  0.09962769  0.21486010  0.20905645    -0.22800
F220        F  0.12957195  0.20402669  0.23001868    -0.24400
C221        C  0.11529183  0.50645491  0.22380451    -0.11200
C222        C  0.13101797  0.00981208  0.20279382     0.11400
C223        C  0.14894447  0.48963980  0.21029189    -0.03000
C224        C  0.14700823  0.46636572  0.22946058    -0.05700
C225        C  0.12966749  0.46292009  0.24647675    -0.16500
C226        C  0.11345993  0.48366779  0.24369157     0.02400
C227        C  0.13317781  0.03610944  0.18457580     0.12400
C228        C  0.16608168  0.99095601  0.18807181     0.63000
H229        H  0.15947173  0.45105248  0.23188394     0.12400
C230        C  0.09427358  0.48236158  0.26142539     0.55100
H231        H  0.10333028  0.52261340  0.22149443     0.08200
C232        C  0.12498685  0.03878168  0.15637734    -0.05600
C233        C  0.12975945  0.06322174  0.13973955    -0.06300
C234        C  0.14215929  0.08495545  0.15061964    -0.15900
C235        C  0.14878257  0.08330122  0.17976744    -0.01500
C236        C  0.14431090  0.05876138  0.19604959    -0.09100
C237        C  0.11468415  0.51187819  0.14734333     0.65200
H238        H  0.12472825  0.06479182  0.11754041     0.10700
C239        C  0.16177379  0.10585829  0.19383182     0.63600
H240        H  0.15016176  0.05667389  0.21783414     0.08000
F241        F  0.08018994  0.50340735  0.25336426    -0.19400
F242        F  0.09875998  0.48672243  0.29023348    -0.15700
F243        F  0.08543765  0.45582841  0.25774795    -0.19200
F244        F  0.17637539  0.01535557  0.19605466    -0.22500
F245        F  0.16149456  0.99248124  0.15902216    -0.24000
F246        F  0.17884762  0.96725523  0.19229488    -0.18000
F247        F  0.15785017  0.10775735  0.22305930    -0.20500
F248        F  0.15802435  0.13283773  0.18224349    -0.21700
F249        F  0.18185739  0.09811371  0.19025772    -0.18800
F250        F  0.10893501  0.51707831  0.11906547    -0.18900
F251        F  0.09740777  0.50846134  0.16341860    -0.22800
F252        F  0.12603642  0.48649525  0.14806549    -0.24400
C253        C  0.13642684  0.20485601  0.96161380    -0.11200
C254        C  0.12368648  0.21393048  0.44845415     0.11400
C255        C  0.10405946  0.20556076  0.45597366    -0.03000
C256        C  0.09872032  0.18458587  0.97609378    -0.05700
C257        C  0.11586624  0.17222970  0.99010195    -0.16500
C258        C  0.13530801  0.18081646  0.98008421     0.02400
C259        C  0.12714398  0.23829959  0.42818563     0.12400
C260        C  0.08552262  0.21910872  0.44147598     0.63000
H261        H  0.08406769  0.17580812  0.97993587     0.12400
C262        C  0.15547698  0.16572739  0.98685396     0.55100
H263        H  0.15107231  0.21269150  0.95539086     0.08200
C264        C  0.13161784  0.26631322  0.43822856    -0.05600
C265        C  0.13199516  0.28920958  0.41834373    -0.06300
C266        C  0.12838388  0.28499498  0.38873295    -0.15900
C267        C  0.12547145  0.25633182  0.37842924    -0.01500
C268        C  0.12491518  0.23352857  0.39850974    -0.09100
C269        C  0.12393360  0.27826281  0.97217157     0.65200
H270        H  0.13477312  0.31085958  0.42599627     0.10700
C271        C  0.12318640  0.24939942  0.34653367     0.63600
H272        H  0.12215784  0.21171646  0.39128151     0.08000
F273        F  0.16599246  0.18198142  0.00668879    -0.19400
F274        F  0.16682802  0.16349935  0.96195018    -0.15700
F275        F  0.15376588  0.13803271  0.99713659    -0.19200
F276        F  0.08538214  0.21187198  0.41255713    -0.22500
F277        F  0.08576144  0.24882604  0.44423561    -0.24000
F278        F  0.06775993  0.20965800  0.45341465    -0.18000
F279        F  0.12403464  0.21994065  0.34135369    -0.20500
F280        F  0.13860046  0.26168903  0.33113912    -0.21700
F281        F  0.10475325  0.25986320  0.33648881    -0.18800
F282        F  0.12522220  0.30754458  0.97767206    -0.18900
F283        F  0.14054741  0.26453267  0.98459323    -0.22800
F284        F  0.10662274  0.26851225  0.98506705    -0.24400
C285        C  0.13201218  0.00154865  0.42476657    -0.11200
C286        C  0.12732543  0.99206908  0.45259232     0.11400
C287        C  0.12966126  0.46392544  0.45611020    -0.03000
C288        C  0.12998803  0.44397358  0.43302491    -0.05700
C289        C  0.12776823  0.45280503  0.40411000    -0.16500
C290        C  0.12595356  0.48293085  0.39809550     0.02400
C291        C  0.12425334  0.01451446  0.47546110     0.12400
C292        C  0.13188920  0.45345956  0.48692217     0.63000
H293        H  0.13161595  0.42111464  0.43750399     0.12400
C294        C  0.12462472  0.49453184  0.36749616     0.55100
H295        H  0.13427243  0.02440165  0.42158538     0.08200
C296        C  0.14047190  0.02926492  0.48855535    -0.05600
C297        C  0.13615122  0.05382140  0.50575614    -0.06300
C298        C  0.11658039  0.06597831  0.00816665    -0.15900
C299        C  0.10042638  0.04800261  0.00025294    -0.01500
C300        C  0.10423227  0.02409203  0.98209366    -0.09100
C301        C  0.16224665  0.01976769  0.48355478     0.65200
H302        H  0.14835563  0.06638876  0.51450641     0.10700
C303        C  0.07896870  0.05547788  0.00870166     0.63600
H304        H  0.09181937  0.01129853  0.97439671     0.08000
F305        F  0.15492049  0.97724062  0.36079837    -0.19400
F306        F  0.12608086  0.52429455  0.36674063    -0.15700
F307        F  0.10630053  0.48752502  0.35524755    -0.19200
F308        F  0.10101028  0.46513883  0.99255058    -0.22500
F309        F  0.13234706  0.95939460  0.50695883    -0.24000
F310        F  0.13416543  0.42371965  0.48835000    -0.18000
F311        F  0.06568906  0.03423010  0.00062539    -0.20500
F312        F  0.07309373  0.08075506  0.99512838    -0.21700
F313        F  0.07777200  0.05883190  0.03824550    -0.18800
F314        F  0.17553153  0.03573205  0.49992808    -0.18900
F315        F  0.16714435  0.02319857  0.45488887    -0.22800
F316        F  0.16490623  0.99105704  0.49096206    -0.24400
C317        C  0.27785121  0.35285864  0.36748016    -0.11200
C318        C  0.27121667  0.36296261  0.34067771     0.11400
C319        C  0.28523864  0.37434737  0.32129809    -0.03000
C320        C  0.30568641  0.37487295  0.32945619    -0.05700
C321        C  0.31296641  0.36359775  0.35600601    -0.16500
C322        C  0.29820824  0.35390083  0.37618918     0.02400
C323        C  0.24914227  0.36496818  0.33525652     0.12400
C324        C  0.27859167  0.38604844  0.29205584     0.63000
H325        H  0.31580503  0.38559324  0.31518650     0.12400
C326        C  0.30218516  0.34467590  0.40722682     0.55100
H327        H  0.26665355  0.34513441  0.38239769     0.08200
C328        C  0.23770470  0.34087412  0.32679468    -0.05600
C329        C  0.21674113  0.34473250  0.32281623    -0.06300
C330        C  0.20716249  0.37163965  0.32730904    -0.15900
C331        C  0.21856932  0.39568111  0.33562678    -0.01500
C332        C  0.23944974  0.39181258  0.33987040    -0.09100
C333        C  0.24751655  0.31126817  0.32239068     0.65200
H334        H  0.20755460  0.32663420  0.31670835     0.10700
C335        C  0.20866911  0.42525930  0.33960547     0.63600
H336        H  0.24846880  0.40977863  0.34685129     0.08000
F337        F  0.30147316  0.31492515  0.40903575    -0.19400
F338        F  0.28742749  0.35649680  0.42499314    -0.15700
F339        F  0.32030823  0.35356574  0.41806943    -0.19200
F340        F  0.26614117  0.41010454  0.29557336    -0.22500
F341        F  0.26822489  0.36519165  0.27705938    -0.24000
F342        F  0.29483591  0.39395657  0.27543806    -0.18000
F343        F  0.19476869  0.42440783  0.36167335    -0.20500
F344        F  0.19890612  0.43342738  0.31438767    -0.21700
F345        F  0.22264116  0.44605211  0.34632066    -0.18800
F346        F  0.23376072  0.29128803  0.31277154    -0.18900
F347        F  0.25565294  0.30137748  0.34811345    -0.22800
F348        F  0.26269109  0.31281729  0.30219509    -0.24400
C349        C  0.23494185  0.12656304  0.10863181    -0.11200
C350        C  0.24171962  0.12146323  0.08074805     0.11400
C351        C  0.22752158  0.11749636  0.05842006    -0.03000
C352        C  0.20673693  0.11924031  0.06501891    -0.05700
C353        C  0.19945500  0.12518558  0.09319128    -0.16500
C354        C  0.21438355  0.12943335  0.11546223     0.02400
C355        C  0.26397338  0.11986788  0.07650055     0.12400
C356        C  0.23434917  0.11133128  0.02775975     0.63000
H357        H  0.19638469  0.11576148  0.04761573     0.12400
C358        C  0.21090159  0.13706276  0.14706661     0.55100
H359        H  0.24617743  0.12896648  0.12555140     0.08200
C360        C  0.27580141  0.14502152  0.07642333    -0.05600
C361        C  0.29699338  0.14185503  0.07639265    -0.06300
C362        C  0.30654638  0.11457002  0.07720585    -0.15900
C363        C  0.29480023  0.08946363  0.07704859    -0.01500
C364        C  0.27359142  0.09254443  0.07668154    -0.09100
C365        C  0.26611444  0.17506578  0.07731197     0.65200
H366        H  0.30634137  0.16073943  0.07655005     0.10700
C367        C  0.30474297  0.05968201  0.07796203     0.63600
H368        H  0.26430196  0.07363185  0.07755321     0.08000
F369        F  0.21873417  0.11496169  0.16405060    -0.19400
F370        F  0.19121662  0.14172258  0.15479515    -0.15700
F371        F  0.22106901  0.16206054  0.15357529    -0.19200
F372        F  0.24543402  0.08571895  0.02691844    -0.22500
F373        F  0.24622976  0.13343048  0.01814140    -0.24000
F374        F  0.21820018  0.10889933  0.00889825    -0.18000
F375        F  0.31592388  0.05671228  0.10308146    -0.20500
F376        F  0.31739080  0.05607738  0.05456337    -0.21700
F377        F  0.29068138  0.03803005  0.07715891    -0.18800
F378        F  0.28024642  0.19637500  0.07417042    -0.18900
F379        F  0.25657748  0.17944021  0.10341338    -0.22800
F380        F  0.25209523  0.17816695  0.05531166    -0.24400
C381        C  0.37605283  0.26037724  0.41086730    -0.11200
C382        C  0.38377962  0.26697097  0.43816082     0.11400
C383        C  0.38943564  0.29568906  0.44425361    -0.03000
C384        C  0.38513928  0.31741318  0.42361794    -0.05700
C385        C  0.37496599  0.31127985  0.39770405    -0.16500
C386        C  0.37176273  0.28190456  0.39033721     0.02400
C387        C  0.38481035  0.24336583  0.46000966     0.12400
C388        C  0.39310851  0.30236896  0.97625875     0.63000
H389        H  0.38848044  0.33965935  0.42848781     0.12400
C390        C  0.36383497  0.27184930  0.36137286     0.55100
H391        H  0.37269395  0.23810339  0.40585901     0.08200
C392        C  0.36439988  0.23023620  0.97433165    -0.05600
C393        C  0.36634326  0.20719874  0.99413082    -0.06300
C394        C  0.38524488  0.19491801  0.00167954    -0.15900
C395        C  0.40284148  0.20567907  0.98849796    -0.01500
C396        C  0.40305392  0.22785314  0.46401781    -0.09100
C397        C  0.34359780  0.24284759  0.96715586     0.65200
H398        H  0.35301488  0.19865644  0.00411544     0.10700
C399        C  0.42356358  0.19246864  0.99479474     0.63600
H400        H  0.41602305  0.23418438  0.45163987     0.08000
F401        F  0.34475665  0.26090014  0.36481092    -0.19400
F402        F  0.37648969  0.25022954  0.35072572    -0.15700
F403        F  0.36292270  0.29354455  0.34111098    -0.19200
F404        F  0.41151059  0.28878062  0.98170514    -0.22500
F405        F  0.37939617  0.29408648  0.99682795    -0.24000
F406        F  0.39563389  0.33184939  0.97887993    -0.18000
F407        F  0.43860437  0.19662325  0.46648726    -0.20500
F408        F  0.42323605  0.16290025  0.99060074    -0.21700
F409        F  0.42905740  0.19826514  0.02296666    -0.18800
F410        F  0.32865241  0.23046787  0.98343042    -0.18900
F411        F  0.34060692  0.24674941  0.44269255    -0.22800
F412        F  0.34310568  0.27222852  0.97251610    -0.24400
C413        C  0.40010579  0.48517683  0.97751907    -0.11200
C414        C  0.38078478  0.48815391  0.45771643     0.11400
C415        C  0.36129492  0.00351555  0.46766181    -0.03000
C416        C  0.36758407  0.02608156  0.98492823    -0.05700
C417        C  0.38555158  0.02942530  0.00080487    -0.16500
C418        C  0.40203472  0.00980083  0.99566484     0.02400
C419        C  0.37836447  0.46161644  0.43998506     0.12400
C420        C  0.34384301  0.50353575  0.44919194     0.63000
H421        H  0.35511031  0.04106171  0.98878080     0.12400
C422        C  0.42250435  0.01321095  0.01006245     0.55100
H423        H  0.41177782  0.47764146  0.46650174     0.08200
C424        C  0.38513671  0.45901158  0.41115848    -0.05600
C425        C  0.38093483  0.43351094  0.39566922    -0.06300
C426        C  0.37035201  0.41087570  0.40826112    -0.15900
C427        C  0.36485866  0.41292578  0.43774550    -0.01500
C428        C  0.36891756  0.43834005  0.45294704    -0.09100
C429        C  0.39620219  0.48331631  0.39669930     0.65200
H430        H  0.38501195  0.43161355  0.37315913     0.10700
C431        C  0.35394996  0.38964541  0.45393834     0.63600
H432        H  0.36221023  0.43888934  0.97572166     0.08000
F433        F  0.43710570  0.99525449  0.99783938    -0.19400
F434        F  0.41804437  0.50219756  0.04408097    -0.15700
F435        F  0.42875454  0.04133102  0.00707130    -0.19200
F436        F  0.33543036  0.47790099  0.45761625    -0.22500
F437        F  0.34611247  0.50337806  0.41960466    -0.24000
F438        F  0.32713331  0.02150032  0.46178872    -0.18000
F439        F  0.36230671  0.38627064  0.48116415    -0.20500
F440        F  0.35528850  0.36321359  0.44038574    -0.21700
F441        F  0.33384167  0.39774324  0.45670932    -0.18800
F442        F  0.40062132  0.47693107  0.36823304    -0.18900
F443        F  0.41417109  0.48806834  0.41102125    -0.22800
F444        F  0.38267052  0.00676412  0.40235608    -0.24400
C445        C  0.37946636  0.46397719  0.24543332    -0.11200
C446        C  0.39605183  0.47057125  0.22808769     0.11400
C447        C  0.41423483  0.45412407  0.23103741    -0.03000
C448        C  0.41443101  0.42955498  0.24886620    -0.05700
C449        C  0.39740538  0.42175967  0.26468357    -0.16500
C450        C  0.37987222  0.43973337  0.26385318     0.02400
C451        C  0.39349485  0.49327769  0.20545283     0.12400
C452        C  0.43322166  0.46224710  0.21505799     0.63000
H453        H  0.42766271  0.41543029  0.24959168     0.12400
C454        C  0.36145459  0.43246761  0.28138538     0.55100
H455        H  0.36586024  0.47722139  0.24338396     0.08200
C456        C  0.38629375  0.48649599  0.17745884    -0.05600
C457        C  0.38187550  0.00630774  0.15831279    -0.06300
C458        C  0.38730337  0.03481417  0.16434148    -0.15900
C459        C  0.39481958  0.04171918  0.19215539    -0.01500
C460        C  0.39644572  0.01974563  0.21316366    -0.09100
C461        C  0.37928434  0.45631871  0.17010590     0.65200
H462        H  0.37628207  0.00140190  0.13691849     0.10700
C463        C  0.40192666  0.07187071  0.19913872     0.63600
H464        H  0.40218375  0.02455157  0.23449786     0.08000
F465        F  0.35427572  0.40598747  0.27278825    -0.19400
F466        F  0.34607394  0.45291877  0.27801053    -0.15700
F467        F  0.36659041  0.43131015  0.31028877    -0.19200
F468        F  0.43851630  0.48994088  0.22268961    -0.22500
F469        F  0.42998265  0.46116734  0.18564064    -0.24000
F470        F  0.44934418  0.44383602  0.22162179    -0.18000
F471        F  0.38584218  0.09133684  0.19758183    -0.20500
F472        F  0.41653107  0.07970002  0.17964494    -0.21700
F473        F  0.41020164  0.07348835  0.22654480    -0.18800
F474        F  0.37326187  0.45411146  0.14159056    -0.18900
F475        F  0.36305032  0.44963912  0.18723346    -0.22800
F476        F  0.39466005  0.43620160  0.17479479    -0.24400
C477        C  0.40523907  0.28949760  0.20812553    -0.11200
C478        C  0.39353722  0.26610784  0.21603476     0.11400
C479        C  0.38590477  0.26481002  0.24431449    -0.03000
C480        C  0.38888636  0.28833122  0.26303248    -0.05700
C481        C  0.39935289  0.31326052  0.25470294    -0.16500
C482        C  0.40928737  0.31237136  0.22727060     0.02400
C483        C  0.39122133  0.24190229  0.19517319     0.12400
C484        C  0.37500477  0.23831782  0.25486080     0.63000
H485        H  0.38358158  0.28647119  0.28480748     0.12400
C486        C  0.42463901  0.33378292  0.21639755     0.55100
H487        H  0.41195387  0.28932740  0.18685755     0.08200
C488        C  0.37519509  0.24114208  0.17486973    -0.05600
C489        C  0.37358699  0.21676437  0.15676582    -0.06300
C490        C  0.38783305  0.19387394  0.15781321    -0.15900
C491        C  0.40411599  0.19500418  0.17776287    -0.01500
C492        C  0.40559303  0.21924354  0.19587993    -0.09100
C493        C  0.36049724  0.26655225  0.17147005     0.65200
H494        H  0.36157233  0.21583319  0.14088334     0.10700
C495        C  0.42034700  0.17149937  0.18096372     0.63600
H496        H  0.41801557  0.22035716  0.21113863     0.08000
F497        F  0.41627818  0.34931310  0.19370426    -0.19400
F498        F  0.44149608  0.31869355  0.20648962    -0.15700
F499        F  0.43139256  0.35287957  0.23687789    -0.19200
F500        F  0.38798737  0.21455484  0.25417418    -0.22500
F501        F  0.35850527  0.23301073  0.23745261    -0.24000
F502        F  0.36817400  0.24169575  0.28282840    -0.18000
F503        F  0.43851486  0.18188815  0.17137931    -0.20500
F504        F  0.41616503  0.14658150  0.16584568    -0.21700
F505        F  0.42237851  0.16414227  0.20973525    -0.18800
F506        F  0.34565614  0.26104424  0.15119040    -0.18900
F507        F  0.37085605  0.29051381  0.16263644    -0.22800
F508        F  0.35112604  0.27276647  0.19734043    -0.24400
C509        C  0.98133718  0.38383453  0.36750193    -0.11200
C510        C  0.98594884  0.38610694  0.33836280     0.11400
C511        C  0.97026551  0.38827549  0.31788546    -0.03000
C512        C  0.95016867  0.38871521  0.32756923    -0.05700
C513        C  0.94500415  0.38587728  0.35708476    -0.16500
C514        C  0.96138468  0.38406435  0.37761445     0.02400
C515        C  0.00756252  0.38508148  0.33028042     0.12400
C516        C  0.97474830  0.38932842  0.28577631     0.63000
H517        H  0.93883357  0.39113277  0.31143458     0.12400
C518        C  0.96001588  0.38212773  0.41042588     0.55100
H519        H  0.99374802  0.38186130  0.38278317     0.08200
C520        C  0.01982715  0.40950905  0.33260116    -0.05600
C521        C  0.04061713  0.40616921  0.32735039    -0.06300
C522        C  0.04968878  0.37908920  0.32082966    -0.15900
C523        C  0.03703230  0.35462538  0.31790219    -0.01500
C524        C  0.01617376  0.35831380  0.32274288    -0.09100
C525        C  0.01111352  0.43874033  0.34176523     0.65200
H526        H  0.05006140  0.42480146  0.32953377     0.10700
C527        C  0.04504626  0.32454597  0.31020541     0.63600
H528        H  0.00632015  0.34000241  0.32160958     0.08000
F529        F  0.97059806  0.40461132  0.42251269    -0.19400
F530        F  0.96894071  0.35635304  0.41935555    -0.15700
F531        F  0.94091180  0.38354531  0.42165520    -0.19200
F532        F  0.98417492  0.36378418  0.27735598    -0.22500
F533        F  0.98726626  0.41197821  0.27982277    -0.24000
F534        F  0.95737632  0.39297743  0.26933575    -0.18000
F535        F  0.05754090  0.31415750  0.33199075    -0.20500
F536        F  0.05552362  0.32544853  0.28455244    -0.21700
F537        F  0.02968365  0.30504839  0.30663812    -0.18800
F538        F  0.02533063  0.46013814  0.34051786    -0.18900
F539        F  0.00429594  0.43724094  0.36979658    -0.22800
F540        F  0.99518209  0.44678321  0.32396873    -0.24400
C541        C  0.86185658  0.02206691  0.20445419    -0.11200
C542        C  0.87939716  0.01325643  0.21925427     0.11400
C543        C  0.89790070  0.02652518  0.21277438    -0.03000
C544        C  0.89816331  0.04790151  0.19108140    -0.05700
C545        C  0.88062223  0.05632609  0.17568856    -0.16500
C546        C  0.86199290  0.04374359  0.18325047     0.02400
C547        C  0.88082868  0.48784416  0.24032330     0.12400
C548        C  0.91726774  0.01813196  0.22863270     0.63000
H549        H  0.91226305  0.05779427  0.18552319     0.12400
C550        C  0.84210480  0.05394714  0.17012341     0.55100
H551        H  0.85068496  0.51337882  0.21278332     0.08200
C552        C  0.87307007  0.49101387  0.26850618    -0.05600
C553        C  0.86899604  0.46602182  0.28454501    -0.06300
C554        C  0.87152734  0.43793309  0.27305046    -0.15900
C555        C  0.88074831  0.43493665  0.24541095    -0.01500
C556        C  0.88499307  0.46008811  0.22959808    -0.09100
C557        C  0.86176816  0.02179778  0.27855306     0.65200
H558        H  0.86259646  0.46832840  0.30586282     0.10700
C559        C  0.88577542  0.40589162  0.23172093     0.63600
H560        H  0.89101187  0.45837367  0.20800591     0.08000
F561        F  0.82571398  0.04259082  0.18418330    -0.19400
F562        F  0.84107424  0.04554096  0.14156167    -0.15700
F563        F  0.84055741  0.08369611  0.17224692    -0.19200
F564        F  0.92279077  0.98993790  0.22215168    -0.22500
F565        F  0.91448008  0.02066707  0.25803289    -0.24000
F566        F  0.93306350  0.03558636  0.22106925    -0.18000
F567        F  0.89223389  0.40858683  0.20354665    -0.20500
F568        F  0.86897702  0.38905240  0.23117737    -0.21700
F569        F  0.90114344  0.39217452  0.24694967    -0.18800
F570        F  0.85580100  0.02060691  0.30706708    -0.18900
F571        F  0.84574578  0.03265062  0.26242678    -0.22800
F572        F  0.87763380  0.04058053  0.27692674    -0.24400
C573        C  0.88737640  0.26620377  0.18708383    -0.11200
C574        C  0.87580957  0.26258454  0.21204060     0.11400
C575        C  0.86656787  0.23567432  0.21686466    -0.03000
C576        C  0.86960911  0.21305869  0.19672720    -0.05700
C577        C  0.88100433  0.21686137  0.17167983    -0.16500
C578        C  0.89004851  0.24377772  0.16670382     0.02400
C579        C  0.87168049  0.28834778  0.23085640     0.12400
C580        C  0.85315503  0.23115051  0.24283235     0.63000
H581        H  0.86256975  0.19244603  0.19990793     0.12400
C582        C  0.90226479  0.24869051  0.13967614     0.55100
H583        H  0.89383837  0.28710938  0.18329448     0.08200
C584        C  0.88511007  0.29768359  0.25267365    -0.05600
C585        C  0.87942189  0.32167122  0.27008549    -0.06300
C586        C  0.86126535  0.33745149  0.26537790    -0.15900
C587        C  0.84891048  0.32951168  0.24139625    -0.01500
C588        C  0.85402326  0.30454880  0.22547614    -0.09100
C589        C  0.90539646  0.28249660  0.25722622     0.65200
H590        H  0.88909255  0.32808540  0.28774852     0.10700
C591        C  0.83071297  0.34702878  0.23074659     0.63600
H592        H  0.84425860  0.29778457  0.20799807     0.08000
F593        F  0.91789759  0.22845274  0.13818582    -0.19400
F594        F  0.91047981  0.27589138  0.13929189    -0.15700
F595        F  0.89003281  0.24599274  0.11560761    -0.19200
F596        F  0.83671913  0.25003691  0.24176881    -0.22500
F597        F  0.86390888  0.23601049  0.26791270    -0.24000
F598        F  0.84595310  0.20335278  0.24379819    -0.18000
F599        F  0.82954501  0.34603768  0.20094984    -0.20500
F600        F  0.83185895  0.37570704  0.23819918    -0.21700
F601        F  0.81327533  0.33573202  0.24184854    -0.18800
F602        F  0.91615671  0.29461182  0.27968895    -0.18900
F603        F  0.91679965  0.28455150  0.23249081    -0.22800
F604        F  0.90268980  0.25368689  0.26341270    -0.24400
C605        C  0.90040778  0.01294406  0.49041762    -0.11200
C606        C  0.88176847  0.00304511  0.48048312     0.11400
C607        C  0.86372463  0.01556420  0.49156480    -0.03000
C608        C  0.86501068  0.03844681  0.51163946    -0.05700
C609        C  0.88369667  0.04919767  0.52078071    -0.16500
C610        C  0.90479221  0.04130337  0.00025474     0.02400
C611        C  0.88352530  0.47945595  0.45330380     0.12400
C612        C  0.84325391  0.00456936  0.48238906     0.63000
H613        H  0.85134524  0.04833647  0.52021266     0.12400
C614        C  0.92515152  0.05438746  0.00678590     0.55100
H615        H  0.91578653  0.50457321  0.47451642     0.08200
C616        C  0.88643312  0.48388969  0.42343138    -0.05600
C617        C  0.88892769  0.45963502  0.40519792    -0.06300
C618        C  0.88900560  0.43119958  0.41584354    -0.15900
C619        C  0.88525158  0.42689360  0.44564273    -0.01500
C620        C  0.88256987  0.45117660  0.46377287    -0.09100
C621        C  0.88878932  0.01555030  0.41813333     0.65200
H622        H  0.89195015  0.46270294  0.38250958     0.10700
C623        C  0.88557811  0.39706958  0.45889140     0.63600
H624        H  0.88064167  0.44834016  0.48673872     0.08000
F625        F  0.92551029  0.08225996  0.99625464    -0.19400
F626        F  0.94086093  0.03885902  0.99412006    -0.15700
F627        F  0.92858812  0.05469685  0.03621873    -0.19200
F628        F  0.84112951  0.97663597  0.49212502    -0.22500
F629        F  0.84151282  0.00481802  0.45268795    -0.24000
F630        F  0.82760588  0.02139470  0.49350321    -0.18000
F631        F  0.88193702  0.39790493  0.48823636    -0.20500
F632        F  0.90434977  0.38436643  0.45482708    -0.21700
F633        F  0.87090722  0.38042179  0.44630645    -0.18800
F634        F  0.88951958  0.51366936  0.38134603    -0.18900
F635        F  0.90631580  0.02638345  0.42978823    -0.22800
F636        F  0.87263956  0.03315794  0.42607886    -0.24400
C637        C  0.87588149  0.28893417  0.43057164    -0.11200
C638        C  0.88966642  0.28417755  0.45328841     0.11400
C639        C  0.90653672  0.30215015  0.45598719    -0.03000
C640        C  0.90855958  0.32505533  0.43649096    -0.05700
C641        C  0.89453788  0.33063821  0.41410155    -0.16500
C642        C  0.87815137  0.31166032  0.41057117     0.02400
C643        C  0.88672660  0.25947961  0.47335481     0.12400
C644        C  0.92268536  0.29668093  0.47891058     0.63000
H645        H  0.92156371  0.33861867  0.43831702     0.12400
C646        C  0.86377000  0.31411896  0.38509851     0.55100
H647        H  0.86338137  0.27440179  0.42847971     0.08200
C648        C  0.87453129  0.26198816  0.49813868    -0.05600
C649        C  0.87661263  0.24357783  0.02090190    -0.06300
C650        C  0.88562094  0.21298876  0.51343686    -0.15900
C651        C  0.89710081  0.21013298  0.48750044    -0.01500
C652        C  0.89728593  0.23351740  0.46802810    -0.09100
C653        C  0.86191925  0.28917962  0.50382478     0.65200
H654        H  0.86867177  0.24537263  0.04115268     0.10700
C655        C  0.90931850  0.18297337  0.47993841     0.63600
H656        H  0.90621694  0.23212643  0.44858669     0.08000
F657        F  0.85120284  0.33801482  0.38839173    -0.19400
F658        F  0.85176171  0.29015056  0.38270049    -0.15700
F659        F  0.87451928  0.31643296  0.35977449    -0.19200
F660        F  0.93221641  0.27029921  0.47396739    -0.22500
F661        F  0.91410282  0.29650775  0.50597757    -0.24000
F662        F  0.93724413  0.31765535  0.47878906    -0.18000
F663        F  0.91826756  0.18485718  0.45313507    -0.20500
F664        F  0.89685391  0.15941756  0.47928540    -0.21700
F665        F  0.92459756  0.17855660  0.49999506    -0.18800
F666        F  0.85624912  0.29319275  0.03733379    -0.18900
F667        F  0.84822892  0.29343503  0.48156589    -0.22800
F668        F  0.87421133  0.31283259  0.50569698    -0.24400
C669        C  0.04261245  0.11960074  0.09583628    -0.11200
C670        C  0.02707396  0.11837867  0.07520287     0.11400
C671        C  0.03204444  0.11812799  0.04559879    -0.03000
C672        C  0.05243992  0.11963425  0.03769971    -0.05700
C673        C  0.06821037  0.12080629  0.05811224    -0.16500
C674        C  0.06314272  0.12111408  0.08780441     0.02400
C675        C  0.00564276  0.12118807  0.08472712     0.14000
C676        C  0.01580383  0.11756791  0.02229587     0.63000
H677        H  0.05614451  0.12152765  0.01516355     0.12400
C678        C  0.07904915  0.12533173  0.11078062     0.55100
H679        H  0.03841239  0.12051928  0.11833918     0.08200
C680        C  0.99393559  0.09711547  0.09215516    -0.05600
C681        C  0.97301677  0.10138442  0.09670904    -0.06300
C682        C  0.96376908  0.12887671  0.09455397    -0.15900
C683        C  0.97575435  0.15313953  0.08914358    -0.01500
C684        C  0.99658865  0.14887061  0.08447708    -0.09100
C685        C  0.00350892  0.06719699  0.09522415     0.65200
H686        H  0.96358988  0.08315452  0.10119900     0.10700
C687        C  0.96644820  0.18333304  0.08803330     0.63600
H688        H  0.00591805  0.16705501  0.07941005     0.08000
F689        F  0.09213463  0.10174731  0.11114579    -0.19400
F690        F  0.07075028  0.12818886  0.13797958    -0.15700
F691        F  0.08946515  0.15017241  0.10496916    -0.19200
F692        F  0.00427258  0.14277366  0.02325651    -0.22500
F693        F  0.00341255  0.09435498  0.02636031    -0.24000
F694        F  0.02400042  0.11507622  0.99500202    -0.18000
F695        F  0.98081729  0.20404107  0.08340613    -0.20500
F696        F  0.95701093  0.18949926  0.11390189    -0.21700
F697        F  0.95239887  0.18516054  0.06592833    -0.18800
F698        F  0.98939982  0.04678667  0.10218983    -0.18900
F699        F  0.01791715  0.06750353  0.11687778    -0.22800
F700        F  0.01262486  0.05877768  0.06975701    -0.24400
C701        C  0.77223890  0.11105690  0.08917719    -0.11200
C702        C  0.76244105  0.13526806  0.07726713     0.11400
C703        C  0.77375410  0.15953270  0.06951453    -0.03000
C704        C  0.79494262  0.15789985  0.07232317    -0.05700
C705        C  0.80504405  0.13341180  0.08394991    -0.16500
C706        C  0.79329555  0.10977727  0.09323835     0.02400
C707        C  0.74012932  0.13476180  0.07431515     0.12400
C708        C  0.76459822  0.19487804  0.56989760     0.63000
H709        H  0.80376628  0.17612868  0.06583256     0.12400
C710        C  0.80249044  0.08399587  0.10898353     0.55100
H711        H  0.76306155  0.09315261  0.09562586     0.08200
C712        C  0.73061758  0.12247928  0.05014282    -0.05600
C713        C  0.70942674  0.12249512  0.04909498    -0.06300
C714        C  0.69716430  0.13293934  0.07197954    -0.15900
C715        C  0.70712974  0.14744286  0.09526508    -0.01500
C716        C  0.72839693  0.14657061  0.09649547    -0.09100
C717        C  0.74283320  0.10916938  0.02560659     0.65200
H718        H  0.70244739  0.11493607  0.02953443     0.10700
C719        C  0.69659576  0.16439111  0.11921764     0.63600
H720        H  0.73615523  0.15581143  0.11484551     0.08000
F721        F  0.81446503  0.06771571  0.09050597    -0.19400
F722        F  0.78794858  0.06612557  0.11996968    -0.15700
F723        F  0.81385760  0.09371465  0.13188293    -0.19200
F724        F  0.75204808  0.20614913  0.59100522    -0.22500
F725        F  0.75338532  0.19032476  0.54516625    -0.24000
F726        F  0.77891321  0.21526164  0.56379695    -0.18000
F727        F  0.69333185  0.14637668  0.14234088    -0.20500
F728        F  0.67861070  0.17694440  0.11024612    -0.21700
F729        F  0.70849915  0.18675552  0.12869700    -0.18800
F730        F  0.73060501  0.09876695  0.00380674    -0.18900
F731        F  0.75458045  0.08636252  0.03586790    -0.22800
F732        F  0.75526248  0.12949094  0.01378699    -0.24400
C733        C  0.49903385  0.09480660  0.07078439    -0.11200
C734        C  0.50721286  0.11116322  0.09331446     0.11400
C735        C  0.49409775  0.12597184  0.11264774    -0.03000
C736        C  0.47311428  0.12463387  0.10811353    -0.05700
C737        C  0.46487884  0.10819581  0.08567190    -0.16500
C738        C  0.47798646  0.09242210  0.06703243     0.02400
C739        C  0.52955744  0.11336140  0.09577545     0.12400
C740        C  0.50223915  0.14299615  0.13806955     0.63000
H741        H  0.46287112  0.13627474  0.12233257     0.12400
C742        C  0.46983034  0.07354823  0.04307122     0.55100
H743        H  0.50933932  0.08380394  0.05619763     0.08200
C744        C  0.54186735  0.09158808  0.10880832    -0.05600
C745        C  0.56239063  0.09724725  0.11404736    -0.06300
C746        C  0.57072941  0.12385341  0.10677552    -0.15900
C747        C  0.55897122  0.14399936  0.09051580    -0.01500
C748        C  0.53844521  0.13857989  0.08575308    -0.09100
C749        C  0.53320665  0.06300683  0.11801644     0.65200
H750        H  0.57172948  0.08163860  0.12561600     0.10700
C751        C  0.56726540  0.17148106  0.07793206     0.63600
H752        H  0.52909075  0.15456780  0.07464034     0.08000
F753        F  0.45968774  0.05067807  0.05483294    -0.19400
F754        F  0.48510355  0.06228244  0.02587757    -0.15700
F755        F  0.45675146  0.08955303  0.02574919    -0.19200
F756        F  0.51291751  0.16626857  0.12830905    -0.22500
F757        F  0.51486972  0.12551967  0.15463580    -0.24000
F758        F  0.48689860  0.15343796  0.15563562    -0.18000
F759        F  0.56171521  0.17354253  0.04920920    -0.20500
F760        F  0.58809416  0.17226724  0.07923220    -0.21700
F761        F  0.55925688  0.19506401  0.09259270    -0.18800
F762        F  0.54760158  0.04534363  0.13125197    -0.18900
F763        F  0.52596557  0.04854956  0.09415083    -0.22800
F764        F  0.51759894  0.06772742  0.13721674    -0.24400
C765        C  0.73784073  0.36359536  0.33815311    -0.11200
C766        C  0.74801101  0.38673645  0.35073707     0.11400
C767        C  0.73670470  0.40889207  0.36484115    -0.03000
C768        C  0.71544511  0.40730561  0.36538400    -0.05700
C769        C  0.70522222  0.38496875  0.35136391    -0.16500
C770        C  0.71660818  0.36221248  0.33829073     0.02400
C771        C  0.76994493  0.38950821  0.34429142     0.12400
C772        C  0.74702310  0.43467406  0.37821330     0.63000
H773        H  0.70655329  0.42433094  0.37556793     0.12400
C774        C  0.70644054  0.33645416  0.32464613     0.55100
H775        H  0.74670300  0.34717769  0.32698582     0.08200
C776        C  0.78544260  0.37381854  0.35869403    -0.05600
C777        C  0.80554859  0.37657398  0.34929714    -0.06300
C778        C  0.81099025  0.39438483  0.32586089    -0.15900
C779        C  0.79466627  0.40849206  0.31022117    -0.01500
C780        C  0.77481976  0.40640092  0.32065212    -0.09100
C781        C  0.78071417  0.35375301  0.38347452     0.65200
H782        H  0.81712882  0.36346984  0.35968358     0.10700
C783        C  0.79670733  0.42573640  0.28248029     0.63600
H784        H  0.76245752  0.41764915  0.30977666     0.08000
F785        F  0.72029066  0.31492508  0.31719115    -0.19400
F786        F  0.69623465  0.34495292  0.29992035    -0.15700
F787        F  0.69296396  0.32485200  0.34385147    -0.19200
F788        F  0.75579430  0.45089985  0.35691675    -0.22500
F789        F  0.76181142  0.42541205  0.39739214    -0.24000
F790        F  0.73353244  0.45239174  0.39302280    -0.18000
F791        F  0.77861997  0.42759397  0.26737993    -0.20500
F792        F  0.81035477  0.41287768  0.26401886    -0.21700
F793        F  0.80220488  0.45363467  0.28891811    -0.18800
F794        F  0.79802849  0.34125560  0.39532114    -0.18900
F795        F  0.76855701  0.33183972  0.37383857    -0.22800
F796        F  0.77078579  0.36893718  0.40500062    -0.24400
C797        C  0.64059520  0.06687014  0.47398882    -0.11200
C798        C  0.62904990  0.04513408  0.48611961     0.11400
C799        C  0.62264903  0.04782590  0.51510222    -0.03000
C800        C  0.62779527  0.07277827  0.53081368    -0.05700
C801        C  0.64012464  0.09394664  0.51899694    -0.16500
C802        C  0.64656789  0.09106980  0.48990585     0.02400
C803        C  0.62618384  0.01847560  0.46868991     0.12400
C804        C  0.61144020  0.02376028  0.52977961     0.63000
H805        H  0.61835320  0.07114003  0.05352887     0.12400
C806        C  0.66002233  0.11205031  0.47429377     0.55100
H807        H  0.64575796  0.06426159  0.45196987     0.08200
C808        C  0.60680897  0.51796942  0.44122092    -0.05600
C809        C  0.60796190  0.49391442  0.42268839    -0.06300
C810        C  0.62159409  0.47049553  0.42742148    -0.15900
C811        C  0.63367649  0.47063470  0.45305663    -0.01500
C812        C  0.64016036  0.99569739  0.47251711    -0.09100
C813        C  0.59167089  0.54187066  0.43354370     0.65200
H814        H  0.59823027  0.49391436  0.40383745     0.10700
C815        C  0.64806949  0.44594339  0.46140673     0.63600
H816        H  0.65151080  0.99805684  0.48919218     0.08000
F817        F  0.65004108  0.12219043  0.44995479    -0.19400
F818        F  0.67753681  0.09765382  0.46587427    -0.15700
F819        F  0.66542820  0.13560256  0.49057607    -0.19200
F820        F  0.62367361  0.99923305  0.53120799    -0.22500
F821        F  0.58269357  0.53033303  0.50427221    -0.24000
F822        F  0.59744402  0.03034169  0.05606830    -0.18000
F823        F  0.66831915  0.95394317  0.48412129    -0.20500
F824        F  0.66315295  0.44292015  0.44106801    -0.21700
F825        F  0.63756325  0.42057701  0.46356397    -0.18800
F826        F  0.57252708  0.53057315  0.43257694    -0.18900
F827        F  0.60604239  0.06564786  0.43321158    -0.22800
F828        F  0.59139764  0.56447716  0.45303040    -0.24400
C829        C  0.63121974  0.24247461  0.51728622    -0.11200
C830        C  0.62850951  0.23625218  0.48795684     0.11400
C831        C  0.62917713  0.20701719  0.47869654    -0.03000
C832        C  0.63304193  0.18514325  0.49921647    -0.05700
C833        C  0.63724220  0.19147709  0.52821064    -0.16500
C834        C  0.63569259  0.22063827  0.53760327     0.02400
C835        C  0.62736430  0.26108469  0.46756547     0.12400
C836        C  0.62720150  0.19771473  0.44740846     0.63000
H837        H  0.63372165  0.16288548  0.49214784     0.12400
C838        C  0.63827452  0.22135605  0.07122131     0.55100
H839        H  0.63075067  0.26491131  0.52393372     0.08200
C840        C  0.60893593  0.27544911  0.46043835    -0.05600
C841        C  0.60911411  0.29849968  0.44061563    -0.06300
C842        C  0.62715943  0.30793440  0.42836170    -0.15900
C843        C  0.64565795  0.29363440  0.43576825    -0.01500
C844        C  0.64537971  0.27038730  0.45530103    -0.09100
C845        C  0.58923538  0.26614120  0.47360338     0.65200
H846        H  0.59512282  0.30950517  0.43463205     0.10700
C847        C  0.66554195  0.30216077  0.42240026     0.63600
H848        H  0.65929120  0.25911635  0.46119127     0.08000
F849        F  0.62553128  0.20529724  0.08789986    -0.19400
F850        F  0.65802502  0.21583129  0.07942182    -0.15700
F851        F  0.63397071  0.25027283  0.07646742    -0.19200
F852        F  0.64571778  0.18718523  0.43798664    -0.22500
F853        F  0.62094762  0.21980145  0.42926318    -0.24000
F854        F  0.61329129  0.17598641  0.44521829    -0.18000
F855        F  0.67065600  0.32939832  0.43178666    -0.20500
F856        F  0.66381782  0.30214921  0.39267000    -0.21700
F857        F  0.68116459  0.28323396  0.42985073    -0.18800
F858        F  0.57296463  0.28260716  0.46365115    -0.18900
F859        F  0.59018186  0.26906892  0.50323566    -0.22800
F860        F  0.58587626  0.23757809  0.46674772    -0.24400
C861        C  0.61826814  0.47740813  0.21307890    -0.11200
C862        C  0.62282017  0.00580475  0.22660490     0.11400
C863        C  0.62894848  0.51383400  0.24753389    -0.03000
C864        C  0.63024668  0.49223316  0.26885884    -0.05700
C865        C  0.62573632  0.46341133  0.26276227    -0.16500
C866        C  0.61979411  0.45574476  0.23436123     0.02400
C867        C  0.61892789  0.02825537  0.20414606     0.12400
C868        C  0.63351399  0.04425561  0.26306749     0.63000
H869        H  0.63460407  0.49774416  0.29068580     0.12400
C870        C  0.61454208  0.42496647  0.22680907     0.55100
H871        H  0.61429724  0.97167461  0.19823847     0.08200
C872        C  0.63282528  0.03433220  0.18198246    -0.05600
C873        C  0.62906485  0.05857788  0.16413382    -0.06300
C874        C  0.61199781  0.07667871  0.16801630    -0.15900
C875        C  0.59736656  0.06908424  0.18886471    -0.01500
C876        C  0.60110344  0.04482549  0.20628694    -0.09100
C877        C  0.65202494  0.51678275  0.17093128     0.65200
H878        H  0.64004333  0.06459816  0.14815379     0.10700
C879        C  0.57786764  0.08593714  0.19471546     0.63600
H880        H  0.59028504  0.03941963  0.22277060     0.08000
F881        F  0.60742162  0.42253567  0.19881621    -0.19400
F882        F  0.59974105  0.41540283  0.24515580    -0.15700
F883        F  0.63161160  0.40748772  0.22950014    -0.19200
F884        F  0.61600953  0.06102677  0.26224255    -0.22500
F885        F  0.64727997  0.05534231  0.24399485    -0.24000
F886        F  0.64101500  0.54714371  0.28324848    -0.18000
F887        F  0.56178668  0.06748128  0.19275160    -0.20500
F888        F  0.57418812  0.10830033  0.17577798    -0.21700
F889        F  0.57856003  0.09721338  0.22232299    -0.18800
F890        F  0.66421671  0.52760277  0.14957034    -0.18900
F891        F  0.64658636  0.48924355  0.16295653    -0.22800
F892        F  0.66315335  0.51529407  0.19619226    -0.24400
C893        C  0.63405961  0.21263062  0.21030848    -0.11200
C894        C  0.61772674  0.23155519  0.21483793     0.11400
C895        C  0.59982028  0.22812263  0.19882151    -0.03000
C896        C  0.59859676  0.20474451  0.17954564    -0.05700
C897        C  0.61462039  0.18437546  0.17544800    -0.16500
C898        C  0.63302544  0.18887010  0.19140888     0.02400
C899        C  0.62017276  0.25558324  0.23572056     0.12400
C900        C  0.58206488  0.24932679  0.20193622     0.63000
H901        H  0.58475010  0.20291942  0.16782760     0.12400
C902        C  0.65258746  0.17075314  0.19012537     0.55100
H903        H  0.64792581  0.21638982  0.22216556     0.08200
C904        C  0.61767599  0.25184685  0.26572889    -0.05600
C905        C  0.61974976  0.27592056  0.28398630    -0.06300
C906        C  0.62417345  0.30341414  0.27320575    -0.15900
C907        C  0.62665696  0.30695954  0.24300453    -0.01500
C908        C  0.62505534  0.28269907  0.22491980    -0.09100
C909        C  0.61280581  0.22259970  0.27835445     0.65200
H910        H  0.61792088  0.27341362  0.30700980     0.10700
C911        C  0.62970447  0.33632385  0.22951850     0.63600
H912        H  0.62714971  0.28477104  0.20189258     0.08000
F913        F  0.66753633  0.18744556  0.17847774    -0.19400
F914        F  0.65176553  0.14564528  0.17437757    -0.15700
F915        F  0.65835224  0.16304051  0.21782409    -0.19200
F916        F  0.58768506  0.27650400  0.19331227    -0.22500
F917        F  0.57592678  0.25061644  0.23032949    -0.24000
F918        F  0.56565157  0.24151611  0.18529357    -0.18000
F919        F  0.64836679  0.34668875  0.23730220    -0.20500
F920        F  0.61461379  0.35522371  0.23869238    -0.21700
F921        F  0.62887207  0.33521311  0.19971158    -0.18800
F922        F  0.61042955  0.22392191  0.30795735    -0.18900
F923        F  0.62828112  0.20299949  0.27250076    -0.22800
F924        F  0.59508395  0.21267319  0.26646732    -0.24400
C925        C  0.51612465  0.37626212  0.31484978    -0.11200
C926        C  0.50388292  0.38624427  0.33751049     0.11400
C927        C  0.51296866  0.39741323  0.36279880    -0.03000
C928        C  0.53421981  0.39867125  0.36425552    -0.05700
C929        C  0.54639489  0.38869052  0.34150788    -0.16500
C930        C  0.53729168  0.37764503  0.31623973     0.02400
C931        C  0.48160663  0.38417749  0.33391846     0.12400
C932        C  0.50027878  0.40761726  0.38815021     0.63000
H933        H  0.54154033  0.40697312  0.38338697     0.12400
C934        C  0.54993883  0.36813330  0.29057740     0.55100
H935        H  0.50886963  0.36748259  0.29588079     0.08200
C936        C  0.47030800  0.40383497  0.31648578    -0.05600
C937        C  0.44975103  0.39859435  0.31131965    -0.06300
C938        C  0.44040272  0.37420587  0.32245005    -0.15900
C939        C  0.45125916  0.35589931  0.34173914    -0.01500
C940        C  0.47188408  0.36079351  0.34653531    -0.09100
C941        C  0.48007832  0.42958335  0.30246846     0.65200
H942        H  0.44113390  0.41256593  0.29699861     0.10700
C943        C  0.44181973  0.33120302  0.35787305     0.63600
H944        H  0.48057392  0.34594529  0.36000586     0.08000
F945        F  0.56182857  0.39063776  0.28185696    -0.19400
F946        F  0.53806989  0.36007934  0.26738998    -0.15700
F947        F  0.56221483  0.34479013  0.29806483    -0.19200
F948        F  0.48994370  0.38468426  0.39939312    -0.22500
F949        F  0.48653735  0.42872384  0.37933175    -0.24000
F950        F  0.51202330  0.41905640  0.40995050    -0.18000
F951        F  0.44609964  0.33387142  0.38697273    -0.20500
F952        F  0.44991474  0.30526681  0.34804018    -0.21700
F953        F  0.42106303  0.33075749  0.35483270    -0.18800
F954        F  0.46608231  0.44689158  0.28797283    -0.18900
F955        F  0.49438940  0.42020855  0.28281390    -0.22800
F956        F  0.48928447  0.44629759  0.32321923    -0.24400
O957        O  0.61474453  0.32551682  0.89020966    -0.77800
C958        C  0.56843374  0.38331023  0.85122816     0.83300
O959        O  0.63597689  0.34893765  0.79322063    -0.78900
O960        O  0.61145422  0.44579795  0.81695436    -0.80400
O961        O  0.63552468  0.42252607  0.91392359    -0.80200
O962        O  0.63818291  0.34923459  0.91445341    -0.78800
Zn963      Zn  0.60867818  0.35002464  0.85475008     1.55700
O964        O  0.61093547  0.44599752  0.89048283    -0.80200
Cd965      Cd  0.64211387  0.38597282  0.88929952     1.59700
Cd966      Cd  0.64148771  0.38492903  0.81856631     1.59600
O967        O  0.67242559  0.38700664  0.87778840    -0.80200
O968        O  0.62442409  0.38513912  0.85412284    -1.90700
Cd969      Cd  0.60632080  0.42066261  0.85368475     1.59900
O970        O  0.67191093  0.38478096  0.82966013    -0.80200
O971        O  0.57633975  0.40817684  0.85198956    -0.78800
C972        C  0.62469786  0.32739409  0.79681436     0.83700
C973        C  0.62690333  0.32745115  0.91152170     0.83400
O974        O  0.57903226  0.36010672  0.85287600    -0.77800
C975        C  0.62312224  0.44386520  0.91189731     0.84200
O976        O  0.61412557  0.32537722  0.81955201    -0.77900
C977        C  0.68145147  0.38585750  0.85358995     0.84300
C978        C  0.62287793  0.44230027  0.79505369     0.84600
O979        O  0.63501843  0.42068179  0.79291338    -0.80300
C980        C  0.61074189  0.16358493  0.65140451     0.87200
C981        C  0.61165460  0.13500129  0.66786382    -0.53000
C982        C  0.61095321  0.11088072  0.65114344     0.10100
C983        C  0.60896893  0.11752007  0.61841035     0.21100
C984        C  0.62713969  0.16156375  0.62851400    -0.53800
C985        C  0.62634701  0.13796681  0.61106321     0.10200
C986        C  0.59079206  0.16123902  0.63389595    -0.53300
C987        C  0.58994270  0.13720818  0.61647207     0.10800
H988        H  0.61243874  0.13385940  0.69121772     0.15300
H989        H  0.60839501  0.09797581  0.60454590     0.01000
H990        H  0.63851091  0.17789176  0.62620413     0.15600
H991        H  0.57781312  0.17566952  0.63628893     0.15400
C992        C  0.67474844  0.13981999  0.56691541     0.87200
C993        C  0.66647707  0.16766157  0.55286884    -0.53000
C994        C  0.64634243  0.16795857  0.54658096     0.10100
C995        C  0.63597304  0.13948289  0.55476404     0.21100
C996        C  0.66126648  0.13425973  0.59302684    -0.53800
C997        C  0.64103908  0.13467541  0.58713467     0.10200
C998        C  0.66848385  0.11553412  0.54603668    -0.53300
C999        C  0.64845890  0.11580557  0.53899516     0.10800
H1000       H  0.67620939  0.18514586  0.54672228     0.15300
H1001       H  0.61958331  0.13944861  0.54961600     0.01000
H1002       H  0.66705344  0.13138029  0.61474634     0.15600
H1003       H  0.67859599  0.09869565  0.53795176     0.15400
O1004       O  0.83708608  0.11352877  0.59645609    -0.77800
C1005       C  0.88373987  0.07368372  0.54179696     0.83300
O1006       O  0.89637974  0.09898432  0.65837603    -0.78900
O1007       O  0.93162613  0.13051676  0.57228614    -0.80400
O1008       O  0.87358056  0.19456461  0.55848589    -0.80200
O1009       O  0.83691917  0.16137677  0.59499885    -0.78800
Zn1010     Zn  0.86664026  0.10049711  0.59767029     1.55700
O1011       O  0.89604886  0.16749762  0.53498309    -0.80200
Cd1012     Cd  0.86745460  0.17064843  0.59547212     1.59700
Cd1013     Cd  0.90230258  0.13474263  0.63235187     1.59600
O1014       O  0.87276223  0.19624990  0.63158963    -0.80200
O1015       O  0.88425765  0.13397274  0.59700407    -1.90700
Cd1016     Cd  0.90124251  0.13180089  0.56141020     1.59900
O1017       O  0.89701589  0.17287664  0.65646505    -0.80200
O1018       O  0.89563832  0.09452759  0.53789431    -0.78800
C1019       C  0.88367861  0.07872458  0.65594432     0.83700
C1020       C  0.82747996  0.13767052  0.59553009     0.83400
O1021       O  0.87179826  0.07343893  0.56329867    -0.77800
C1022       C  0.88504036  0.19033008  0.53673805     0.84200
O1023       O  0.87175904  0.07734412  0.63431131    -0.77900
C1024       C  0.88476925  0.19438960  0.65314790     0.84300
C1025       C  0.94154306  0.13068668  0.59590649     0.84600
O1026       O  0.93286137  0.13211507  0.62041636    -0.80300
C1027       C  0.92152080  0.38912999  0.86686578     0.87200
C1028       C  0.91733176  0.36168658  0.88399208    -0.53000
C1029       C  0.89833884  0.36001265  0.89517754     0.10100
C1030       C  0.88452596  0.38618155  0.88648845     0.21100
C1031       C  0.90505008  0.38851368  0.84315791    -0.53800
C1032       C  0.88556855  0.38700097  0.85285972     0.10200
C1033       C  0.91492233  0.41465770  0.88591209    -0.53300
C1034       C  0.89595368  0.41320245  0.89691473     0.10800
H1035       H  0.92891139  0.34514087  0.88779572     0.15300
H1036       H  0.86918381  0.38568983  0.89535839     0.01000
H1037       H  0.90837382  0.38847979  0.82062773     0.15600
H1038       H  0.92484617  0.43237695  0.89090671     0.15400
C1039       C  0.83215483  0.39130935  0.81642978     0.87200
C1040       C  0.83657611  0.36544216  0.79665966    -0.53000
C1041       C  0.85580124  0.36331647  0.78679139     0.10100
C1042       C  0.86955369  0.38713676  0.79886242     0.21100
C1043       C  0.84800072  0.38838214  0.84114754    -0.53800
C1044       C  0.86770053  0.38626197  0.83229866     0.10200
C1045       C  0.83964032  0.41808110  0.80035018    -0.53300
C1046       C  0.85916506  0.41616667  0.79036016     0.10800
H1047       H  0.82523419  0.34976745  0.79122224     0.15300
H1048       H  0.88493557  0.38425527  0.79100083     0.01000
H1049       H  0.84421491  0.39070580  0.86363463     0.15600
H1050       H  0.83000843  0.43707306  0.79711811     0.15400
O1051       O  0.43391590  0.13385619  0.57759766    -0.77800
C1052       C  0.38752320  0.17207318  0.51997473     0.83300
O1053       O  0.37504101  0.15457962  0.63607733    -0.78900
O1054       O  0.33862078  0.11757973  0.55292981    -0.80400
O1055       O  0.39588259  0.05188058  0.54383047    -0.80200
O1056       O  0.43386835  0.08583311  0.57873065    -0.78800
Zn1057     Zn  0.40472597  0.14739009  0.57657557     1.55700
O1058       O  0.37379492  0.07811134  0.51789514    -0.80200
Cd1059     Cd  0.40289394  0.07760604  0.57925627     1.59700
Cd1060     Cd  0.36889931  0.11725579  0.61295360     1.59600
O1061       O  0.39689301  0.05469226  0.61705726    -0.80200
O1062       O  0.38655520  0.11475974  0.57776260    -1.90700
Cd1063     Cd  0.36905731  0.11565901  0.54213524     1.59900
O1064       O  0.37447643  0.08233828  0.64070165    -0.80200
O1065       O  0.37469809  0.15207934  0.51716144    -0.78800
C1066       C  0.38843124  0.17357657  0.63258637     0.83700
C1067       C  0.44330750  0.10955055  0.57840802     0.83400
O1068       O  0.39990189  0.17241521  0.54109797    -0.77800
C1069       C  0.38452423  0.05514171  0.52170712     0.84200
O1070       O  0.40045695  0.17294141  0.61129423    -0.77900
C1071       C  0.38580744  0.05973859  0.63903796     0.84300
C1072       C  0.32920550  0.11823349  0.57681119     0.84600
O1073       O  0.33838809  0.11818767  0.60109685    -0.80300
C1074       C  0.40015816  0.33914345  0.77477097     0.87200
C1075       C  0.42036409  0.34162160  0.79069107    -0.53000
C1076       C  0.42160213  0.36506713  0.80842282     0.10100
C1077       C  0.40225612  0.38407254  0.80932220     0.21100
C1078       C  0.38430407  0.33989405  0.79901748    -0.53800
C1079       C  0.38560520  0.36279341  0.81757865     0.10200
C1080       C  0.39632027  0.36824040  0.75985224    -0.53300
C1081       C  0.39791474  0.39171938  0.77734510     0.10800
H1082       H  0.43296164  0.32657363  0.78739479     0.15300
H1083       H  0.40331280  0.40317859  0.82371248     0.01000
H1084       H  0.37205859  0.32498076  0.80063312     0.15600
H1085       H  0.39318522  0.37029087  0.73694615     0.15400
C1086       C  0.33628701  0.36167148  0.86023001     0.87200
C1087       C  0.34188187  0.38555894  0.88146572    -0.53000
C1088       C  0.36175615  0.38603416  0.88906115     0.10100
C1089       C  0.37486644  0.36260384  0.87367283     0.21100
C1090       C  0.35042981  0.36611887  0.83437797    -0.53800
C1091       C  0.37050436  0.36683237  0.84104407     0.10200
C1092       C  0.34474413  0.33325902  0.87315292    -0.53300
C1093       C  0.36471083  0.33364289  0.88099665     0.10800
H1094       H  0.33088965  0.40136339  0.88935274     0.15300
H1095       H  0.39113532  0.36308320  0.87948123     0.01000
H1096       H  0.34565480  0.36499427  0.81205534     0.15600
H1097       H  0.33540930  0.31470123  0.87694879     0.15400
O1098       O  0.11828128  0.43891947  0.78427809    -0.77800
C1099       C  0.07163034  0.38230850  0.81848251     0.83300
O1100       O  0.13879739  0.40860583  0.88268809    -0.78900
O1101       O  0.11486461  0.31497951  0.84758909    -0.80400
O1102       O  0.14252254  0.34187329  0.75746115    -0.80200
O1103       O  0.14198750  0.41552220  0.75928966    -0.78800
Zn1104     Zn  0.11218520  0.41402012  0.81941802     1.55700
O1105       O  0.11552085  0.32114113  0.77615162    -0.80200
Cd1106     Cd  0.14694522  0.37800878  0.78389324     1.59700
Cd1107     Cd  0.14405751  0.37355763  0.85512593     1.59600
O1108       O  0.17688536  0.37607304  0.79804678    -0.80200
O1109       O  0.12828806  0.37801082  0.81809284    -1.90700
Cd1110     Cd  0.11028604  0.34409352  0.81407717     1.59900
O1111       O  0.17465490  0.37216975  0.84598138    -0.80200
O1112       O  0.08046111  0.35782124  0.81561306    -0.78800
C1113       C  0.12888354  0.43227903  0.87906446     0.83700
C1114       C  0.12998718  0.43731072  0.76254833     0.83400
O1115       O  0.08191807  0.40532160  0.81999944    -0.77800
C1116       C  0.12923494  0.32231822  0.75706413     0.84200
O1117       O  0.11869731  0.43705038  0.85603721    -0.77900
C1118       C  0.18500544  0.37361397  0.82296537     0.84300
C1119       C  0.12575951  0.31452215  0.87030270     0.84600
O1120       O  0.13725735  0.33539235  0.87666171    -0.80300
C1121       C  0.11414080  0.14690186  0.51403533     0.87200
C1122       C  0.09308296  0.14746667  0.52829383    -0.53000
C1123       C  0.08972053  0.12541433  0.54721355     0.10100
C1124       C  0.10851611  0.10485233  0.55104113     0.21100
C1125       C  0.12833256  0.14718528  0.54019311    -0.53800
C1126       C  0.12610401  0.12511914  0.55930365     0.10200
C1127       C  0.11613307  0.11656337  0.50113470    -0.53300
C1128       C  0.11346146  0.09457824  0.52000182     0.10800
H1129       H  0.08142865  0.16372795  0.52418323     0.15300
H1130       H  0.10650001  0.08653428  0.56595681     0.01000
H1131       H  0.13965751  0.16328497  0.54316936     0.15600
H1132       H  0.11972445  0.11272440  0.47860091     0.15400
C1133       C  0.17650699  0.12441619  0.60146902     0.87200
C1134       C  0.17028492  0.10219875  0.62390620    -0.53000
C1135       C  0.15047356  0.10367623  0.63149929     0.10100
C1136       C  0.13803434  0.12709345  0.61501581     0.21100
C1137       C  0.16174768  0.11924010  0.57586081    -0.53800
C1138       C  0.14160274  0.12060099  0.58271353     0.10200
C1139       C  0.16917859  0.15389764  0.61306337    -0.53300
C1140       C  0.14922219  0.15568458  0.62042327     0.10800
H1141       H  0.18084269  0.08648666  0.63321879     0.15300
H1142       H  0.12202598  0.12806758  0.62129004     0.01000
H1143       H  0.16613627  0.11776863  0.55350115     0.15600
H1144       H  0.17934606  0.17168242  0.61627014     0.15400
C1145       C  0.11607045  0.27237195  0.69441536    -0.11200
C1146       C  0.13265649  0.25298061  0.69482218     0.11400
C1147       C  0.14879346  0.25770625  0.71436883    -0.03000
C1148       C  0.14717341  0.28080016  0.73415073    -0.05700
C1149       C  0.13022458  0.29951143  0.73451655    -0.16500
C1150       C  0.11464576  0.29580202  0.71387533     0.02400
C1151       C  0.13334092  0.22871443  0.67358387     0.12400
C1152       C  0.16777044  0.23866972  0.71397012     0.63000
H1153       H  0.15911629  0.28434682  0.74971204     0.12400
C1154       C  0.09698729  0.31712092  0.71187164     0.55100
H1155       H  0.10422920  0.26896764  0.67866730     0.08200
C1156       C  0.12483583  0.20151588  0.67917057    -0.05600
C1157       C  0.12871586  0.17846463  0.65980554    -0.06300
C1158       C  0.14040159  0.18210532  0.63490398    -0.15900
C1159       C  0.14590879  0.21062201  0.62726239    -0.01500
C1160       C  0.14297802  0.23312683  0.64728177    -0.09100
C1161       C  0.11194816  0.19693606  0.70561641     0.65200
H1162       H  0.12354114  0.15709944  0.66489173     0.10700
C1163       C  0.15436249  0.21885778  0.59819546     0.63600
H1164       H  0.14832955  0.25449727  0.64233762     0.08000
F1165       F  0.08532655  0.31548278  0.73637897    -0.19400
F1166       F  0.08480577  0.31166837  0.68822597    -0.15700
F1167       F  0.10409803  0.34484402  0.70926012    -0.19200
F1168       F  0.17717161  0.24103606  0.68759284    -0.22500
F1169       F  0.16292776  0.21016839  0.71840673    -0.24000
F1170       F  0.18139666  0.24650484  0.73516514    -0.18000
F1171       F  0.14339495  0.24221154  0.58733091    -0.20500
F1172       F  0.15322776  0.19691321  0.57817399    -0.21700
F1173       F  0.17428018  0.22660680  0.60140771    -0.18800
F1174       F  0.10507990  0.16897825  0.70708159    -0.18900
F1175       F  0.09533028  0.21551238  0.70468772    -0.22800
F1176       F  0.12295216  0.20237079  0.73035605    -0.24400
C1177       C  0.11613762  0.50464340  0.71686306    -0.11200
C1178       C  0.13439435  0.00774834  0.70618326     0.11400
C1179       C  0.14942234  0.48655020  0.70322488    -0.03000
C1180       C  0.14735275  0.46386724  0.72319887    -0.05700
C1181       C  0.13015212  0.46145029  0.74076176    -0.16500
C1182       C  0.11401296  0.48212975  0.73704926     0.02400
C1183       C  0.13604599  0.03356246  0.68728011     0.12400
C1184       C  0.17100734  0.99232602  0.69611399     0.63000
H1185       H  0.15963883  0.44830452  0.72589972     0.12400
C1186       C  0.09450141  0.48086632  0.75401473     0.55100
H1187       H  0.10436445  0.52106733  0.71445020     0.08200
C1188       C  0.12865861  0.03425711  0.65855666    -0.05600
C1189       C  0.13209878  0.05890752  0.64154710    -0.06300
C1190       C  0.14235205  0.08276796  0.65259139    -0.15900
C1191       C  0.14823181  0.08278166  0.68210314    -0.01500
C1192       C  0.14519624  0.05799907  0.69874427    -0.09100
C1193       C  0.11478220  0.51219155  0.64071215     0.65200
H1194       H  0.12771222  0.05915293  0.61902186     0.10700
C1195       C  0.15813507  0.10791843  0.69706072     0.63600
H1196       H  0.15025324  0.05755952  0.72101706     0.08000
F1197       F  0.08016400  0.50075572  0.74417618    -0.19400
F1198       F  0.09822762  0.48694434  0.78272574    -0.15700
F1199       F  0.08635665  0.45374276  0.75138550    -0.19200
F1200       F  0.17953615  0.01760111  0.70564335    -0.22500
F1201       F  0.16829874  0.99376396  0.66659560    -0.24000
F1202       F  0.18449593  0.96979095  0.70189342    -0.18000
F1203       F  0.14880311  0.11324866  0.72320324    -0.20500
F1204       F  0.15669988  0.13299264  0.68126352    -0.21700
F1205       F  0.17826715  0.10107072  0.70209020    -0.18800
F1206       F  0.10883263  0.51840614  0.61271440    -0.18900
F1207       F  0.09761261  0.50893036  0.65704908    -0.22800
F1208       F  0.12566859  0.48640133  0.64044790    -0.24400
C1209       C  0.14031456  0.19902671  0.46028026    -0.11200
C1210       C  0.11920233  0.21832001  0.94980768     0.11400
C1211       C  0.10006190  0.20713375  0.95592888    -0.03000
C1212       C  0.10178265  0.18398707  0.47695225    -0.05700
C1213       C  0.11839127  0.17011887  0.49088194    -0.16500
C1214       C  0.13821931  0.17641316  0.48033147     0.02400
C1215       C  0.12176679  0.24315140  0.92985059     0.12400
C1216       C  0.08115068  0.21868912  0.94078901     0.63000
H1217       H  0.08671712  0.17712010  0.48137088     0.12400
C1218       C  0.15782613  0.16092927  0.48946330     0.55100
H1219       H  0.15522353  0.20517521  0.45343188     0.08200
C1220       C  0.12343184  0.27180572  0.94008351    -0.05600
C1221       C  0.12480930  0.29444118  0.91996623    -0.06300
C1222       C  0.12483277  0.28924212  0.89008618    -0.15900
C1223       C  0.12433433  0.26023986  0.87996151    -0.01500
C1224       C  0.12275529  0.23770844  0.90015493    -0.09100
C1225       C  0.13589260  0.27196905  0.46989482     0.65200
H1226       H  0.12565956  0.31653415  0.92747260     0.10700
C1227       C  0.12607562  0.25284173  0.84812335     0.63600
H1228       H  0.12202707  0.21551121  0.89290799     0.08000
F1229       F  0.16649748  0.17556712  0.51221148    -0.19400
F1230       F  0.17147687  0.16041969  0.46696497    -0.15700
F1231       F  0.15513524  0.13254712  0.49707506    -0.19200
F1232       F  0.08273879  0.21396713  0.91145506    -0.22500
F1233       F  0.07877650  0.24797891  0.94583072    -0.24000
F1234       F  0.06393272  0.20530608  0.95022338    -0.18000
F1235       F  0.12880902  0.22344773  0.84369055    -0.20500
F1236       F  0.14246858  0.26649519  0.83641297    -0.21700
F1237       F  0.10866963  0.26154235  0.83371813    -0.18800
F1238       F  0.13917965  0.30088552  0.47533032    -0.18900
F1239       F  0.15299197  0.25649584  0.47834937    -0.22800
F1240       F  0.11972609  0.26361366  0.48636268    -0.24400
C1241       C  0.12702137  0.00345753  0.92006966    -0.11200
C1242       C  0.12560739  0.99463609  0.94888681     0.11400
C1243       C  0.12476043  0.46458652  0.95448050    -0.03000
C1244       C  0.12581665  0.44503672  0.93107578    -0.05700
C1245       C  0.12890801  0.45436131  0.90263041    -0.16500
C1246       C  0.13198211  0.48416800  0.89754334     0.02400
C1247       C  0.12360143  0.01748114  0.97164572     0.12400
C1248       C  0.11956584  0.45376524  0.98433072     0.63000
H1249       H  0.12341164  0.42228752  0.93466994     0.12400
C1250       C  0.13611336  0.49555441  0.86753039     0.55100
H1251       H  0.12734100  0.02639561  0.91570132     0.08200
C1252       C  0.14002945  0.03435522  0.98092055    -0.05600
C1253       C  0.13622145  0.05821670  0.99927357    -0.06300
C1254       C  0.11628451  0.06413963  0.50990356    -0.15900
C1255       C  0.10011248  0.04834517  0.49816223    -0.01500
C1256       C  0.10439084  0.02376442  0.48117176    -0.09100
C1257       C  0.16129936  0.02826351  0.97020895     0.65200
H1258       H  0.14839161  0.07239856  0.00504755     0.10700
C1259       C  0.07846462  0.05851565  0.50195929     0.63600
H1260       H  0.09221783  0.01256152  0.47061385     0.08000
F1261       F  0.14572752  0.97955863  0.85310539    -0.19400
F1262       F  0.14131450  0.52433281  0.86805985    -0.15700
F1263       F  0.11905974  0.49317874  0.85046235    -0.19200
F1264       F  0.11496359  0.46151874  0.50252968    -0.22500
F1265       F  0.13880412  0.96463301  0.00229402    -0.24000
F1266       F  0.11855622  0.42396246  0.98510762    -0.18000
F1267       F  0.06492735  0.03932136  0.49026757    -0.20500
F1268       F  0.07563238  0.08475590  0.48832116    -0.21700
F1269       F  0.07433444  0.06134668  0.53099189    -0.18800
F1270       F  0.17535157  0.04439573  0.98500158    -0.18900
F1271       F  0.16246665  0.03506116  0.94129795    -0.22800
F1272       F  0.16640417  0.99940966  0.97389506    -0.24400
C1273       C  0.27785251  0.35369639  0.86543430    -0.11200
C1274       C  0.27144042  0.36422358  0.83871082     0.11400
C1275       C  0.28574290  0.37490363  0.81934533    -0.03000
C1276       C  0.30627461  0.37385737  0.82727008    -0.05700
C1277       C  0.31329782  0.36212853  0.85380706    -0.16500
C1278       C  0.29826370  0.35329970  0.87401396     0.02400
C1279       C  0.24937436  0.36629175  0.83298635     0.12400
C1280       C  0.27926886  0.38785189  0.79056022     0.63000
H1281       H  0.31664669  0.38390730  0.81290860     0.12400
C1282       C  0.30167245  0.34385539  0.90513838     0.55100
H1283       H  0.26646803  0.34659589  0.88039884     0.08200
C1284       C  0.23824299  0.34239610  0.82321297    -0.05600
C1285       C  0.21725005  0.34595318  0.81902153    -0.06300
C1286       C  0.20721287  0.37215035  0.82546568    -0.15900
C1287       C  0.21829627  0.39584765  0.83570495    -0.01500
C1288       C  0.23931734  0.39252968  0.83917655    -0.09100
C1289       C  0.24838725  0.31306298  0.81844424     0.65200
H1290       H  0.20836451  0.32797467  0.81172304     0.10700
C1291       C  0.20786809  0.42446425  0.84282341     0.63600
H1292       H  0.24810773  0.41029988  0.84720819     0.08000
F1293       F  0.29686520  0.31508146  0.90771218    -0.19400
F1294       F  0.28905681  0.36001809  0.92292218    -0.15700
F1295       F  0.32089997  0.34722255  0.91540675    -0.19200
F1296       F  0.26744793  0.41238069  0.79509674    -0.22500
F1297       F  0.26827042  0.36811103  0.77498664    -0.24000
F1298       F  0.29563432  0.39546448  0.77402668    -0.18000
F1299       F  0.19432955  0.42077934  0.86500175    -0.20500
F1300       F  0.19758794  0.43472098  0.81878809    -0.21700
F1301       F  0.22148335  0.44509333  0.85135724    -0.18800
F1302       F  0.23516735  0.29337535  0.80685565    -0.18900
F1303       F  0.25544457  0.30232243  0.84447321    -0.22800
F1304       F  0.26442875  0.31541879  0.79976153    -0.24400
C1305       C  0.23509737  0.12921997  0.61029786    -0.11200
C1306       C  0.24192924  0.12190348  0.58286166     0.11400
C1307       C  0.22778698  0.11420296  0.56150514    -0.03000
C1308       C  0.20704047  0.11480023  0.56841100    -0.05700
C1309       C  0.19966064  0.12326026  0.59589495    -0.16500
C1310       C  0.21451582  0.13010136  0.61756099     0.02400
C1311       C  0.26419245  0.12147481  0.57809312     0.12400
C1312       C  0.23462345  0.10523915  0.53151795     0.63000
H1313       H  0.19678831  0.10773472  0.55202526     0.12400
C1314       C  0.21081454  0.13886736  0.64882753     0.55100
H1315       H  0.24627929  0.13436562  0.62660431     0.08200
C1316       C  0.27522070  0.14725880  0.57559335    -0.05600
C1317       C  0.29650042  0.14538825  0.57489424    -0.06300
C1318       C  0.30686658  0.11869788  0.57631526    -0.15900
C1319       C  0.29586016  0.09293933  0.57742129    -0.01500
C1320       C  0.27463807  0.09477504  0.57889269    -0.09100
C1321       C  0.26454608  0.17658428  0.57380469     0.65200
H1322       H  0.30525549  0.16480471  0.57365664     0.10700
C1323       C  0.30665600  0.06372612  0.57692156     0.63600
H1324       H  0.26601273  0.07534664  0.58118538     0.08000
F1325       F  0.22198413  0.12072393  0.66677607    -0.19400
F1326       F  0.19120810  0.13782192  0.65767431    -0.15700
F1327       F  0.21722908  0.16681311  0.65288757    -0.19200
F1328       F  0.24569078  0.07964393  0.53301264    -0.22500
F1329       F  0.24650148  0.12633584  0.51983838    -0.24000
F1330       F  0.21846872  0.10112760  0.51301237    -0.18000
F1331       F  0.31933876  0.06111622  0.60058750    -0.20500
F1332       F  0.31796430  0.06115430  0.55203898    -0.21700
F1333       F  0.29325211  0.04124754  0.57746733    -0.18800
F1334       F  0.27793093  0.19846210  0.56860260    -0.18900
F1335       F  0.25479530  0.18273787  0.59940448    -0.22800
F1336       F  0.25051731  0.17660407  0.55163513    -0.24400
C1337       C  0.37505526  0.25834827  0.91147924    -0.11200
C1338       C  0.38101837  0.26508879  0.93967742     0.11400
C1339       C  0.38561546  0.29411688  0.94645351    -0.03000
C1340       C  0.38242508  0.31570356  0.92525930    -0.05700
C1341       C  0.37419638  0.30931014  0.89805216    -0.16500
C1342       C  0.37183522  0.27981649  0.89042793     0.02400
C1343       C  0.38202520  0.24121991  0.96148072     0.12400
C1344       C  0.39926457  0.30342076  0.47278192     0.63000
H1345       H  0.38524440  0.33803485  0.93041902     0.12400
C1346       C  0.36613246  0.26972671  0.86044819     0.55100
H1347       H  0.37252744  0.23595273  0.90595294     0.08200
C1348       C  0.36739727  0.23487292  0.47516478    -0.05600
C1349       C  0.36900001  0.21145170  0.49442868    -0.06300
C1350       C  0.38730762  0.19624248  0.49889718    -0.15900
C1351       C  0.40462989  0.20431388  0.48326757    -0.01500
C1352       C  0.40086803  0.22853695  0.96845550    -0.09100
C1353       C  0.34713449  0.25035162  0.47078485     0.65200
H1354       H  0.35588465  0.20480846  0.50632120     0.10700
C1355       C  0.42441650  0.18736672  0.48598595     0.63600
H1356       H  0.41409744  0.23673422  0.95793215     0.08000
F1357       F  0.34675724  0.25927541  0.86074900    -0.19400
F1358       F  0.37931292  0.24778390  0.85188934    -0.15700
F1359       F  0.36712084  0.29141533  0.84027139    -0.19200
F1360       F  0.41730703  0.28815042  0.47585923    -0.22500
F1361       F  0.38667756  0.29659881  0.49529481    -0.24000
F1362       F  0.40329444  0.33257241  0.47457612    -0.18000
F1363       F  0.43818404  0.20346511  0.97697433    -0.20500
F1364       F  0.42117934  0.15841112  0.48077707    -0.21700
F1365       F  0.43231101  0.19063196  0.51340328    -0.18800
F1366       F  0.33247599  0.23976646  0.48880408    -0.18900
F1367       F  0.33913210  0.23809077  0.93843100    -0.22800
F1368       F  0.34891536  0.27950021  0.47642393    -0.24400
C1369       C  0.39943994  0.49262488  0.47117610    -0.11200
C1370       C  0.38270775  0.48387909  0.96035802     0.11400
C1371       C  0.36507483  0.00317352  0.96529276    -0.03000
C1372       C  0.36423137  0.02630303  0.48733578    -0.05700
C1373       C  0.38312458  0.03122459  0.50018977    -0.16500
C1374       C  0.39990515  0.01332922  0.49223148     0.02400
C1375       C  0.37963887  0.45759201  0.94237485     0.12400
C1376       C  0.34805886  0.50468543  0.94562868     0.63000
H1377       H  0.35158312  0.04024570  0.49326073     0.12400
C1378       C  0.42117185  0.01930405  0.50267013     0.55100
H1379       H  0.41119648  0.46776573  0.97553662     0.08200
C1380       C  0.38767431  0.45402143  0.91432343    -0.05600
C1381       C  0.38249517  0.42932403  0.89813236    -0.06300
C1382       C  0.36945609  0.40857531  0.90913182    -0.15900
C1383       C  0.36243803  0.41154672  0.93793976    -0.01500
C1384       C  0.36791699  0.43587232  0.95405811    -0.09100
C1385       C  0.40136348  0.47640787  0.90155209     0.65200
H1386       H  0.38786676  0.42666780  0.87626236     0.10700
C1387       C  0.34820886  0.39042714  0.95160697     0.63600
H1388       H  0.36426433  0.44035142  0.47525071     0.08000
F1389       F  0.43548130  0.00318977  0.48762007    -0.19400
F1390       F  0.42369061  0.51193427  0.53224425    -0.15700
F1391       F  0.42532286  0.04815677  0.49871224    -0.19200
F1392       F  0.33716369  0.48101460  0.95383339    -0.22500
F1393       F  0.35225828  0.50258602  0.91655970    -0.24000
F1394       F  0.33220570  0.02355816  0.95422886    -0.18000
F1395       F  0.34855408  0.39248923  0.98137905    -0.20500
F1396       F  0.35361235  0.36240788  0.94451163    -0.21700
F1397       F  0.32872440  0.39641793  0.94234009    -0.18800
F1398       F  0.40699151  0.46938237  0.87367321    -0.18900
F1399       F  0.41867747  0.47833332  0.91813753    -0.22800
F1400       F  0.38821008  0.00350260  0.90181020    -0.24400
C1401       C  0.37903227  0.46188317  0.74349909    -0.11200
C1402       C  0.39582209  0.46904649  0.72684243     0.11400
C1403       C  0.41426951  0.45343100  0.73062817    -0.03000
C1404       C  0.41471074  0.42930487  0.74905572    -0.05700
C1405       C  0.39758465  0.42106449  0.76443061    -0.16500
C1406       C  0.37959376  0.43792741  0.76223291     0.02400
C1407       C  0.39331809  0.49180503  0.70434106     0.12400
C1408       C  0.43330089  0.46206916  0.71502247     0.63000
H1409       H  0.42822526  0.41582127  0.75056702     0.12400
C1410       C  0.36089395  0.42971371  0.77866364     0.55100
H1411       H  0.36518701  0.47445340  0.74067586     0.08200
C1412       C  0.38623383  0.48523862  0.67623368    -0.05600
C1413       C  0.38235803  0.00942001  0.65638991    -0.06300
C1414       C  0.38611210  0.03838604  0.66308812    -0.15900
C1415       C  0.39082781  0.04592672  0.69202754    -0.01500
C1416       C  0.39252643  0.02386426  0.71297764    -0.09100
C1417       C  0.37977305  0.45496154  0.66825111     0.65200
H1418       H  0.37845723  0.00407009  0.63434797     0.10700
C1419       C  0.39462480  0.07698219  0.70057217     0.63600
H1420       H  0.39667158  0.02901515  0.73497192     0.08000
F1421       F  0.35476821  0.40272131  0.76989881    -0.19400
F1422       F  0.34505103  0.44918470  0.77411145    -0.15700
F1423       F  0.36518637  0.42912453  0.80785346    -0.19200
F1424       F  0.43840776  0.48965373  0.72331015    -0.22500
F1425       F  0.43023689  0.46160233  0.68554453    -0.24000
F1426       F  0.44947288  0.44366718  0.72133632    -0.18000
F1427       F  0.37706372  0.09335742  0.69725617    -0.20500
F1428       F  0.40953164  0.08811356  0.68338778    -0.21700
F1429       F  0.40082324  0.07926834  0.72901506    -0.18800
F1430       F  0.37370365  0.45315942  0.63971667    -0.18900
F1431       F  0.36374195  0.44720098  0.68527321    -0.22800
F1432       F  0.39557242  0.43540984  0.67240697    -0.24400
C1433       C  0.40555090  0.29085026  0.70663538    -0.11200
C1434       C  0.39383699  0.26737782  0.71409710     0.11400
C1435       C  0.38631022  0.26527643  0.74236777    -0.03000
C1436       C  0.38948113  0.28822119  0.76165422    -0.05700
C1437       C  0.39992283  0.31328019  0.75376382    -0.16500
C1438       C  0.40973131  0.31314822  0.72624692     0.02400
C1439       C  0.39192602  0.24365430  0.69283612     0.12400
C1440       C  0.37512347  0.23874756  0.75218838     0.63000
H1441       H  0.38420044  0.28593323  0.78339707     0.12400
C1442       C  0.42494923  0.33490149  0.71562344     0.55100
H1443       H  0.41218313  0.29116589  0.68531586     0.08200
C1444       C  0.37619654  0.24314710  0.67208359    -0.05600
C1445       C  0.37516893  0.21929225  0.65330233    -0.06300
C1446       C  0.39002155  0.19724093  0.65369178    -0.15900
C1447       C  0.40639252  0.19866248  0.67333607    -0.01500
C1448       C  0.40691631  0.22181831  0.69291286    -0.09100
C1449       C  0.36125428  0.26829484  0.66891181     0.65200
H1450       H  0.36312422  0.21810310  0.63748927     0.10700
C1451       C  0.42303389  0.17560635  0.67384570     0.63600
H1452       H  0.41910513  0.22320232  0.70848099     0.08000
F1453       F  0.41625808  0.35119891  0.69371408    -0.19400
F1454       F  0.44163498  0.32015560  0.70468309    -0.15700
F1455       F  0.43203950  0.35328055  0.73652129    -0.19200
F1456       F  0.38741499  0.21441774  0.74936444    -0.22500
F1457       F  0.35795074  0.23529961  0.73563108    -0.24000
F1458       F  0.36930360  0.24084258  0.78073790    -0.18000
F1459       F  0.43284274  0.17480811  0.64763246    -0.20500
F1460       F  0.41479570  0.14899722  0.67906798    -0.21700
F1461       F  0.43726894  0.18080601  0.69508938    -0.18800
F1462       F  0.34694183  0.26312740  0.64777294    -0.18900
F1463       F  0.37147899  0.29281927  0.66138041    -0.22800
F1464       F  0.35126515  0.27338145  0.69452457    -0.24400
C1465       C  0.98045161  0.38817668  0.86802637    -0.11200
C1466       C  0.98503545  0.39178370  0.83899809     0.11400
C1467       C  0.96921858  0.39471630  0.81872912    -0.03000
C1468       C  0.94913082  0.39529641  0.82862062    -0.05700
C1469       C  0.94403099  0.39107211  0.85796617    -0.16500
C1470       C  0.96050082  0.38827043  0.87827136     0.02400
C1471       C  0.00671836  0.39064870  0.83074527     0.12400
C1472       C  0.97355034  0.39593675  0.78660178     0.63000
H1473       H  0.93758506  0.39913225  0.81276842     0.12400
C1474       C  0.95903309  0.38424290  0.91086433     0.55100
H1475       H  0.99290417  0.38518906  0.88310436     0.08200
C1476       C  0.01917163  0.41495834  0.83279204    -0.05600
C1477       C  0.03999650  0.41139248  0.82732632    -0.06300
C1478       C  0.04897272  0.38415832  0.82109534    -0.15900
C1479       C  0.03616090  0.35971972  0.81908246    -0.01500
C1480       C  0.01528236  0.36371524  0.82375361    -0.09100
C1481       C  0.01060797  0.44429603  0.84189178     0.65200
H1482       H  0.04955315  0.42995366  0.82904002     0.10700
C1483       C  0.04404277  0.32922854  0.81280348     0.63600
H1484       H  0.00534872  0.34547892  0.82300493     0.08000
F1485       F  0.97198717  0.40295596  0.92457227    -0.19400
F1486       F  0.96499328  0.35624921  0.91762805    -0.15700
F1487       F  0.94026518  0.38945686  0.92237424    -0.19200
F1488       F  0.98285520  0.37035867  0.77800223    -0.22500
F1489       F  0.98611776  0.41849561  0.78058708    -0.24000
F1490       F  0.95609825  0.39973996  0.77036574    -0.18000
F1491       F  0.05674506  0.31998904  0.83485480    -0.20500
F1492       F  0.05423319  0.32865594  0.78687246    -0.21700
F1493       F  0.02863218  0.30961762  0.81069949    -0.18800
F1494       F  0.02508881  0.46536544  0.84143056    -0.18900
F1495       F  0.00321345  0.44271164  0.86961713    -0.22800
F1496       F  0.99510805  0.45285662  0.82357330    -0.24400
C1497       C  0.86614525  0.02162280  0.70932746    -0.11200
C1498       C  0.88464598  0.01024954  0.71939420     0.11400
C1499       C  0.90284936  0.02170146  0.70903860    -0.03000
C1500       C  0.90181978  0.04465655  0.68907281    -0.05700
C1501       C  0.88327001  0.05567656  0.67839770    -0.16500
C1502       C  0.86504975  0.04410825  0.68897027     0.02400
C1503       C  0.87685005  0.49166945  0.74224597     0.12400
C1504       C  0.92321982  0.00927375  0.71850621     0.63000
H1505       H  0.91560695  0.05350900  0.68078600     0.12400
C1506       C  0.84446252  0.05555234  0.67930739     0.55100
H1507       H  0.84752108  0.51225457  0.70968162     0.08200
C1508       C  0.86665380  0.49449871  0.76879904    -0.05600
C1509       C  0.86272234  0.46937168  0.78467802    -0.06300
C1510       C  0.86865913  0.44144910  0.77516296    -0.15900
C1511       C  0.88130588  0.43940159  0.75028322    -0.01500
C1512       C  0.88411256  0.46443681  0.73363962    -0.09100
C1513       C  0.87701583  0.01752954  0.78285610     0.65200
H1514       H  0.85440665  0.47139698  0.80460510     0.10700
C1515       C  0.89294430  0.41220901  0.74139102     0.63600
H1516       H  0.89210510  0.46306450  0.71338822     0.08000
F1517       F  0.82904395  0.04443122  0.69563482    -0.19400
F1518       F  0.84105313  0.04794412  0.65089933    -0.15700
F1519       F  0.84360038  0.08528361  0.68211597    -0.19200
F1520       F  0.92525642  0.98100018  0.70921021    -0.22500
F1521       F  0.92485060  0.00997857  0.74819465    -0.24000
F1522       F  0.93901495  0.02463529  0.70725394    -0.18000
F1523       F  0.90265866  0.41543469  0.71529140    -0.20500
F1524       F  0.88030872  0.38931596  0.73833797    -0.21700
F1525       F  0.90766847  0.40598465  0.76179359    -0.18800
F1526       F  0.87526600  0.01540662  0.81249117    -0.18900
F1527       F  0.85998618  0.03175509  0.77229349    -0.22800
F1528       F  0.89374204  0.03379494  0.77712376    -0.24400
C1529       C  0.89589261  0.26220568  0.69717793    -0.11200
C1530       C  0.87815891  0.26529159  0.71351903     0.11400
C1531       C  0.86317390  0.24393831  0.71104349    -0.03000
C1532       C  0.86620722  0.22077995  0.69162356    -0.05700
C1533       C  0.88381272  0.21784767  0.67514563    -0.16500
C1534       C  0.89912096  0.23850402  0.67832096     0.02400
C1535       C  0.87477652  0.29196240  0.73146873     0.12400
C1536       C  0.84393995  0.24563450  0.72873535     0.63000
H1537       H  0.85462849  0.20486454  0.68879015     0.12400
C1538       C  0.91847967  0.23582432  0.66116435     0.55100
H1539       H  0.90701798  0.27888968  0.69881930     0.08200
C1540       C  0.88405597  0.29627570  0.75873026    -0.05600
C1541       C  0.87788933  0.32032060  0.77570300    -0.06300
C1542       C  0.86258204  0.33973850  0.76649259    -0.15900
C1543       C  0.85412219  0.33613766  0.73841440    -0.01500
C1544       C  0.86079416  0.31267660  0.72130937    -0.09100
C1545       C  0.90020126  0.27539916  0.76992220     0.65200
H1546       H  0.88457321  0.32368678  0.79676804     0.10700
C1547       C  0.83774457  0.35620380  0.72628029     0.63600
H1548       H  0.85430249  0.30937373  0.70011206     0.08000
F1549       F  0.92844556  0.21018329  0.66801294    -0.19400
F1550       F  0.93136808  0.25823459  0.66700022    -0.15700
F1551       F  0.91405245  0.23608515  0.63199912    -0.19200
F1552       F  0.83197027  0.26879410  0.71988649    -0.22500
F1553       F  0.84868867  0.24889764  0.75760042    -0.24000
F1554       F  0.83273199  0.22092662  0.72581878    -0.18000
F1555       F  0.83513563  0.35230733  0.69690928    -0.20500
F1556       F  0.84263791  0.38468571  0.73059290    -0.21700
F1557       F  0.81959892  0.35067245  0.73940734    -0.18800
F1558       F  0.90635052  0.28240756  0.79758179    -0.18900
F1559       F  0.91689187  0.27604666  0.75223688    -0.22800
F1560       F  0.89288666  0.24768752  0.77035652    -0.24400
C1561       C  0.90379424  0.01811705  0.98051218    -0.11200
C1562       C  0.88550781  0.00510644  0.97335238     0.11400
C1563       C  0.86755861  0.01479225  0.98710027    -0.03000
C1564       C  0.86852350  0.03769668  0.00720816    -0.05700
C1565       C  0.88675566  0.05135005  0.01389162    -0.16500
C1566       C  0.90177653  0.03597722  0.51019929     0.02400
C1567       C  0.88254654  0.48506922  0.95398412     0.12400
C1568       C  0.84749492  0.00088740  0.98061220     0.63000
H1569       H  0.85489229  0.04528604  0.01782954     0.12400
C1570       C  0.92249496  0.04560812  0.52002713     0.55100
H1571       H  0.91482086  0.50898015  0.97629985     0.08200
C1572       C  0.88581896  0.48946858  0.92418672    -0.05600
C1573       C  0.88814238  0.46519189  0.90592349    -0.06300
C1574       C  0.88812467  0.43674533  0.91654982    -0.15900
C1575       C  0.88449948  0.43249160  0.94641011    -0.01500
C1576       C  0.88150661  0.45679573  0.96444048    -0.09100
C1577       C  0.88754000  0.01493282  0.90940494     0.65200
H1578       H  0.89125691  0.46824460  0.88326083     0.10700
C1579       C  0.88544616  0.40276207  0.95988558     0.63600
H1580       H  0.87941312  0.45399866  0.98738105     0.08000
F1581       F  0.92613423  0.07283815  0.50940159    -0.19400
F1582       F  0.93773381  0.02716621  0.51030243    -0.15700
F1583       F  0.92347022  0.04614029  0.54981204    -0.19200
F1584       F  0.84825850  0.97227219  0.98896764    -0.22500
F1585       F  0.84336262  0.00233259  0.95141851    -0.24000
F1586       F  0.83171663  0.01448672  0.99507297    -0.18000
F1587       F  0.88210583  0.40369712  0.98930476    -0.20500
F1588       F  0.90437535  0.39062357  0.95553869    -0.21700
F1589       F  0.87093342  0.38554022  0.94775085    -0.18800
F1590       F  0.88986909  0.51924448  0.88229762    -0.18900
F1591       F  0.90424143  0.02952152  0.91909245    -0.22800
F1592       F  0.87027426  0.03004886  0.91753834    -0.24400
C1593       C  0.87474734  0.29617771  0.93534356    -0.11200
C1594       C  0.88959509  0.29062612  0.95646234     0.11400
C1595       C  0.90691176  0.30784079  0.95748241    -0.03000
C1596       C  0.90845540  0.33064693  0.93780813    -0.05700
C1597       C  0.89367342  0.33662624  0.91651280    -0.16500
C1598       C  0.87653153  0.31870469  0.91501013     0.02400
C1599       C  0.88736084  0.26553735  0.97619859     0.12400
C1600       C  0.92407832  0.30158420  0.97865289     0.63000
H1601       H  0.92170581  0.34380164  0.93860092     0.12400
C1602       C  0.86053035  0.32214353  0.89167586     0.55100
H1603       H  0.86178493  0.28235804  0.93472306     0.08200
C1604       C  0.87669311  0.26769154  0.00240998    -0.05600
C1605       C  0.87424788  0.23879823  0.51774768    -0.06300
C1606       C  0.88670182  0.21724664  0.01407479    -0.15900
C1607       C  0.89697224  0.21510078  0.98712153    -0.01500
C1608       C  0.89689756  0.23932523  0.96872058    -0.09100
C1609       C  0.86532015  0.29533321  0.01064795     0.65200
H1610       H  0.86519157  0.24101563  0.53697531     0.10700
C1611       C  0.90807449  0.18773637  0.97733854     0.63600
H1612       H  0.90476919  0.23832393  0.94834482     0.08000
F1613       F  0.84823988  0.34579932  0.89769902    -0.19400
F1614       F  0.84840396  0.29823573  0.89001993    -0.15700
F1615       F  0.86944608  0.32546193  0.86506215    -0.19200
F1616       F  0.93267642  0.27476097  0.97283058    -0.22500
F1617       F  0.91695936  0.30185734  0.00657342    -0.24000
F1618       F  0.93910092  0.32179121  0.97686923    -0.18000
F1619       F  0.91560662  0.19023896  0.94970481    -0.20500
F1620       F  0.89506513  0.16479906  0.97730949    -0.21700
F1621       F  0.92426149  0.18192475  0.99553497    -0.18800
F1622       F  0.85120828  0.28742965  0.52926198    -0.18900
F1623       F  0.85040454  0.30123454  0.99042547    -0.22800
F1624       F  0.87833929  0.31820631  0.01170118    -0.24400
C1625       C  0.04252272  0.12004794  0.59507926    -0.11200
C1626       C  0.02720851  0.11930049  0.57408463     0.11400
C1627       C  0.03255897  0.11869240  0.54461573    -0.03000
C1628       C  0.05308870  0.11980745  0.53722029    -0.05700
C1629       C  0.06862506  0.12068460  0.55804350    -0.16500
C1630       C  0.06318914  0.12070517  0.58760916     0.02400
C1631       C  0.00565724  0.12194162  0.58324401     0.14000
C1632       C  0.01661137  0.11770848  0.52094781     0.63000
H1633       H  0.05712580  0.12119424  0.51476810     0.12400
C1634       C  0.07888174  0.12346565  0.61114130     0.55100
H1635       H  0.03805615  0.12103362  0.61747033     0.08200
C1636       C  0.99445202  0.09798363  0.59249711    -0.05600
C1637       C  0.97357657  0.10188125  0.59767877    -0.06300
C1638       C  0.96385961  0.12891148  0.59430039    -0.15900
C1639       C  0.97531302  0.15315628  0.58685378    -0.01500
C1640       C  0.99611168  0.14926233  0.58155720    -0.09100
C1641       C  0.00447533  0.06848766  0.59659275     0.65200
H1642       H  0.96454003  0.08367477  0.60366476     0.10700
C1643       C  0.96548083  0.18296573  0.58455966     0.63600
H1644       H  0.00505026  0.16744426  0.57520064     0.08000
F1645       F  0.09155727  0.09941639  0.61105951    -0.19400
F1646       F  0.07027831  0.12559548  0.63820231    -0.15700
F1647       F  0.08979722  0.14809345  0.60651953    -0.19200
F1648       F  0.00532214  0.14315343  0.52079863    -0.22500
F1649       F  0.00394602  0.09487815  0.52549123    -0.24000
F1650       F  0.02513838  0.11413926  0.49396519    -0.18000
F1651       F  0.97936769  0.20384081  0.57810058    -0.20500
F1652       F  0.95653617  0.19023171  0.61052344    -0.21700
F1653       F  0.95091225  0.18316779  0.56310053    -0.18800
F1654       F  0.99080566  0.04806633  0.60513001    -0.18900
F1655       F  0.01929144  0.07010531  0.61758737    -0.22800
F1656       F  0.01315101  0.05917841  0.57110025    -0.24400
C1657       C  0.77145017  0.11811610  0.59948833    -0.11200
C1658       C  0.76231156  0.14275811  0.58735576     0.11400
C1659       C  0.77421148  0.16664623  0.58032920    -0.03000
C1660       C  0.79532603  0.16397694  0.58341497    -0.05700
C1661       C  0.80484669  0.13863612  0.59418618    -0.16500
C1662       C  0.79250741  0.11561281  0.60343422     0.02400
C1663       C  0.74022644  0.14250758  0.58170675     0.12400
C1664       C  0.76340025  0.18734909  0.05939212     0.63000
H1665       H  0.80458204  0.18181298  0.57710285     0.12400
C1666       C  0.80112310  0.08874377  0.61807822     0.55100
H1667       H  0.76182885  0.10051216  0.60539817     0.08200
C1668       C  0.73224719  0.13044043  0.55627022    -0.05600
C1669       C  0.71121035  0.13083712  0.55226255    -0.06300
C1670       C  0.69761962  0.14193689  0.57317107    -0.15900
C1671       C  0.70612038  0.15658389  0.59756062    -0.01500
C1672       C  0.72716623  0.15487109  0.60202989    -0.09100
C1673       C  0.74595271  0.11688232  0.53352745     0.65200
H1674       H  0.70545434  0.12299100  0.53201766     0.10700
C1675       C  0.69444027  0.17493149  0.61938752     0.63600
H1676       H  0.73367739  0.16430460  0.62127140     0.08000
F1677       F  0.81198888  0.07216191  0.59851898    -0.19400
F1678       F  0.78613226  0.07172978  0.62920878    -0.15700
F1679       F  0.81346309  0.09667570  0.64072681    -0.19200
F1680       F  0.75174889  0.19877386  0.08143994    -0.22500
F1681       F  0.75110586  0.18213119  0.03588657    -0.24000
F1682       F  0.77718686  0.20785086  0.05149013    -0.18000
F1683       F  0.69169027  0.15913103  0.64423525    -0.20500
F1684       F  0.67601968  0.18484417  0.60925476    -0.21700
F1685       F  0.70527880  0.19920420  0.62642759    -0.18800
F1686       F  0.73518324  0.10708188  0.50993589    -0.18900
F1687       F  0.75651363  0.09360868  0.54519694    -0.22800
F1688       F  0.75951712  0.13684583  0.52384926    -0.24400
C1689       C  0.49964972  0.09660993  0.56383624    -0.11200
C1690       C  0.50821028  0.11478724  0.58464466     0.11400
C1691       C  0.49538880  0.13056937  0.60363857    -0.03000
C1692       C  0.47436506  0.12786850  0.60087848    -0.05700
C1693       C  0.46573357  0.10954318  0.58030881    -0.16500
C1694       C  0.47853608  0.09330034  0.56162478     0.02400
C1695       C  0.53062380  0.11688343  0.58677791     0.12400
C1696       C  0.50386568  0.15030593  0.62675532     0.63000
H1697       H  0.46438056  0.14017982  0.61491630     0.12400
C1698       C  0.46994666  0.07316947  0.53906037     0.55100
H1699       H  0.50968673  0.08496416  0.54936315     0.08200
C1700       C  0.54271396  0.09570276  0.60112195    -0.05600
C1701       C  0.56286116  0.10213170  0.60805945    -0.06300
C1702       C  0.57108704  0.12891567  0.60120193    -0.15900
C1703       C  0.55983978  0.14829485  0.58339413    -0.01500
C1704       C  0.53963383  0.14208599  0.57684684    -0.09100
C1705       C  0.53415378  0.06696539  0.61003389     0.65200
H1706       H  0.57192864  0.08695208  0.62057213     0.10700
C1707       C  0.56834968  0.17564978  0.57085542     0.63600
H1708       H  0.53054557  0.15759693  0.56468904     0.08000
F1709       F  0.46024408  0.05078005  0.55241721    -0.19400
F1710       F  0.48486489  0.06127491  0.52164496    -0.15700
F1711       F  0.45635111  0.08819040  0.52167148    -0.19200
F1712       F  0.51287750  0.17363246  0.61402821    -0.22500
F1713       F  0.51801449  0.13540155  0.64333989    -0.24000
F1714       F  0.48895406  0.16083549  0.64499430    -0.18000
F1715       F  0.56424896  0.17661529  0.54159492    -0.20500
F1716       F  0.58903663  0.17720747  0.57426138    -0.21700
F1717       F  0.55926725  0.19940837  0.58390903    -0.18800
F1718       F  0.54819557  0.05008830  0.62492783    -0.18900
F1719       F  0.52834723  0.05179040  0.58579593    -0.22800
F1720       F  0.51760107  0.07145264  0.62762181    -0.24400
C1721       C  0.73648136  0.36349388  0.84339791    -0.11200
C1722       C  0.74615649  0.38959943  0.84896300     0.11400
C1723       C  0.73450494  0.41429419  0.85715602    -0.03000
C1724       C  0.71340553  0.41192644  0.85954832    -0.05700
C1725       C  0.70374784  0.38604870  0.85313187    -0.16500
C1726       C  0.71537685  0.36127253  0.84539916     0.02400
C1727       C  0.76809546  0.39117577  0.84240574     0.12400
C1728       C  0.74427501  0.44316067  0.86256391     0.63000
H1729       H  0.70416171  0.43058579  0.86541116     0.12400
C1730       C  0.70543463  0.33266166  0.83942900     0.55100
H1731       H  0.74559497  0.34504157  0.83658203     0.08200
C1732       C  0.78340624  0.38058819  0.86105738    -0.05600
C1733       C  0.80372653  0.38170708  0.85212968    -0.06300
C1734       C  0.80944272  0.39246378  0.82481250    -0.15900
C1735       C  0.79333368  0.40093661  0.80537841    -0.01500
C1736       C  0.77331665  0.40129297  0.81529047    -0.09100
C1737       C  0.77819854  0.36735070  0.88992248     0.65200
H1738       H  0.81503878  0.37233428  0.86619847     0.10700
C1739       C  0.79514328  0.40946354  0.77382577     0.63600
H1740       H  0.76120847  0.40844780  0.80095975     0.08000
F1741       F  0.71949508  0.31078928  0.83404077    -0.19400
F1742       F  0.69286000  0.33517831  0.81565769    -0.15700
F1743       F  0.69419806  0.32481650  0.86304590    -0.19200
F1744       F  0.75291092  0.45292249  0.83747426    -0.22500
F1745       F  0.75906099  0.44022120  0.88353886    -0.24000
F1746       F  0.73039120  0.46393410  0.87174889    -0.18000
F1747       F  0.78106673  0.39478500  0.75756100    -0.20500
F1748       F  0.81351937  0.40323137  0.76180679    -0.21700
F1749       F  0.79114815  0.43876874  0.77119086    -0.18800
F1750       F  0.79528689  0.36040487  0.90599114    -0.18900
F1751       F  0.76758567  0.34235847  0.88551183    -0.22800
F1752       F  0.76646687  0.38651998  0.90583318    -0.24400
C1753       C  0.63938139  0.05914211  0.97674559    -0.11200
C1754       C  0.62589008  0.03922736  0.98773079     0.11400
C1755       C  0.61792534  0.04344906  0.01575713    -0.03000
C1756       C  0.62373400  0.06797994  0.03172396    -0.05700
C1757       C  0.63777810  0.08745161  0.02092988    -0.16500
C1758       C  0.64542420  0.08328991  0.99257858     0.02400
C1759       C  0.62220535  0.01309783  0.96981762     0.12400
C1760       C  0.60409144  0.02157847  0.02913066     0.63000
H1761       H  0.62343137  0.07496577  0.55318948     0.12400
C1762       C  0.66020617  0.10288514  0.97764427     0.55100
H1763       H  0.64566619  0.05539069  0.95548416     0.08200
C1764       C  0.61369813  0.51803721  0.94600262    -0.05600
C1765       C  0.61274290  0.49358104  0.92791972    -0.06300
C1766       C  0.62332154  0.46753816  0.93421449    -0.15900
C1767       C  0.63419794  0.46556743  0.96086123    -0.01500
C1768       C  0.63383260  0.98816044  0.97562735    -0.09100
C1769       C  0.60215450  0.54560785  0.93797065     0.65200
H1770       H  0.60413399  0.49510980  0.90807902     0.10700
C1771       C  0.64437827  0.43773572  0.97133803     0.63600
H1772       H  0.64339817  0.98821751  0.99462844     0.08000
F1773       F  0.65219416  0.11133555  0.95130361    -0.19400
F1774       F  0.67809558  0.08769049  0.97293178    -0.15700
F1775       F  0.66452947  0.12758279  0.99287726    -0.19200
F1776       F  0.61426797  0.99539371  0.03226151    -0.22500
F1777       F  0.59063391  0.52389393  0.01087482    -0.24000
F1778       F  0.60588274  0.03119824  0.55758243    -0.18000
F1779       F  0.65456926  0.94019220  0.99324381    -0.20500
F1780       F  0.66092344  0.43097190  0.95438641    -0.21700
F1781       F  0.63080093  0.41548636  0.97037185    -0.18800
F1782       F  0.58996472  0.54181181  0.91398823    -0.18900
F1783       F  0.60844392  0.06401048  0.93285522    -0.22800
F1784       F  0.58995044  0.55434399  0.96056771    -0.24400
C1785       C  0.63116625  0.23556933  0.01959178    -0.11200
C1786       C  0.62891098  0.22964789  0.99010602     0.11400
C1787       C  0.62967579  0.20046884  0.98056960    -0.03000
C1788       C  0.63270152  0.17839429  0.00108098    -0.05700
C1789       C  0.63670625  0.18447598  0.03015061    -0.16500
C1790       C  0.63534147  0.21354017  0.03978434     0.02400
C1791       C  0.62781101  0.25485802  0.97019197     0.12400
C1792       C  0.62858085  0.19115155  0.94920256     0.63000
H1793       H  0.63327229  0.15616326  0.99386956     0.12400
C1794       C  0.63888049  0.22884042  0.56888969     0.55100
H1795       H  0.63053980  0.25793074  0.02648020     0.08200
C1796       C  0.60934533  0.26620363  0.95915704    -0.05600
C1797       C  0.60973114  0.28998686  0.94024607    -0.06300
C1798       C  0.62784991  0.30350041  0.93306309    -0.15900
C1799       C  0.64627505  0.29286500  0.94539183    -0.01500
C1800       C  0.64586750  0.26848491  0.96350279    -0.09100
C1801       C  0.58937855  0.25336018  0.96764583     0.65200
H1802       H  0.59575146  0.29841923  0.93105182     0.10700
C1803       C  0.66639323  0.30658350  0.93913180     0.63600
H1804       H  0.65973206  0.25979610  0.97283623     0.08000
F1805       F  0.62706655  0.21196320  0.58617926    -0.19400
F1806       F  0.65892820  0.22486397  0.57634704    -0.15700
F1807       F  0.63362814  0.25746719  0.57410187    -0.19200
F1808       F  0.64619469  0.17623268  0.94215715    -0.22500
F1809       F  0.62622400  0.21389144  0.93020607    -0.24000
F1810       F  0.61249813  0.17296121  0.94547424    -0.18000
F1811       F  0.66659864  0.33417717  0.95055746    -0.20500
F1812       F  0.66938974  0.30775201  0.90970495    -0.21700
F1813       F  0.68244433  0.29110007  0.95114701    -0.18800
F1814       F  0.57311437  0.26846576  0.95576299    -0.18900
F1815       F  0.58744380  0.25407602  0.99729670    -0.22800
F1816       F  0.58857074  0.22507155  0.95831299    -0.24400
C1817       C  0.61842996  0.47813239  0.72096358    -0.11200
C1818       C  0.62246036  0.01103817  0.72441550     0.11400
C1819       C  0.62306799  0.51517825  0.75757274    -0.03000
C1820       C  0.62370397  0.49331927  0.77870210    -0.05700
C1821       C  0.62206526  0.46403426  0.77142461    -0.16500
C1822       C  0.61930450  0.45623525  0.74204123     0.02400
C1823       C  0.61889230  0.03445390  0.70265021     0.12400
C1824       C  0.63713773  0.04665058  0.76081551     0.63000
H1825       H  0.62565165  0.49891945  0.80120402     0.12400
C1826       C  0.61670554  0.42502202  0.73298426     0.55100
H1827       H  0.60982125  0.97933853  0.69650646     0.08200
C1828       C  0.63223587  0.03982012  0.67955644    -0.05600
C1829       C  0.62821436  0.06374806  0.66128352    -0.06300
C1830       C  0.61112487  0.08184551  0.66507849    -0.15900
C1831       C  0.59684308  0.07459836  0.68656073    -0.01500
C1832       C  0.60114840  0.05123498  0.70503595    -0.09100
C1833       C  0.65426896  0.52103040  0.68749260     0.65200
H1834       H  0.63894350  0.06939598  0.64482225     0.10700
C1835       C  0.57689427  0.09064594  0.69143600     0.63600
H1836       H  0.59057222  0.04622785  0.72196612     0.08000
F1837       F  0.61156479  0.42263337  0.70412890    -0.19400
F1838       F  0.60156203  0.41277714  0.74895450    -0.15700
F1839       F  0.63458609  0.40971913  0.73735682    -0.19200
F1840       F  0.62107814  0.06616057  0.75946133    -0.22500
F1841       F  0.65202747  0.05539468  0.74225850    -0.24000
F1842       F  0.62859393  0.54928471  0.79589773    -0.18000
F1843       F  0.56136294  0.07120194  0.69018590    -0.20500
F1844       F  0.57276029  0.11182325  0.67130560    -0.21700
F1845       F  0.57706528  0.10329047  0.71846408    -0.18800
F1846       F  0.66801096  0.53265917  0.66866646    -0.18900
F1847       F  0.65168134  0.49246389  0.67995264    -0.22800
F1848       F  0.66235470  0.52227003  0.71498610    -0.24400
C1849       C  0.62866734  0.21339914  0.71331783    -0.11200
C1850       C  0.61521045  0.23681922  0.71086369     0.11400
C1851       C  0.60180163  0.23836958  0.68714934    -0.03000
C1852       C  0.60086429  0.21453358  0.66823242    -0.05700
C1853       C  0.61363270  0.18982906  0.67140281    -0.16500
C1854       C  0.62913114  0.19071826  0.69320603     0.02400
C1855       C  0.61687972  0.26028002  0.73254145     0.12400
C1856       C  0.58914045  0.26552826  0.68136144     0.63000
H1857       H  0.59057650  0.21587418  0.65020099     0.12400
C1858       C  0.64664325  0.16907986  0.69744837     0.55100
H1859       H  0.63952391  0.21337253  0.73092496     0.08200
C1860       C  0.60601049  0.26007169  0.75860114    -0.05600
C1861       C  0.60882928  0.28262380  0.77847071    -0.06300
C1862       C  0.62313223  0.30432762  0.77412295    -0.15900
C1863       C  0.63516789  0.30298347  0.74867599    -0.01500
C1864       C  0.63136673  0.28129789  0.72810558    -0.09100
C1865       C  0.59221352  0.23538430  0.76594257     0.65200
H1866       H  0.59999848  0.28297179  0.79800282     0.10700
C1867       C  0.65235728  0.32340899  0.74313370     0.63600
H1868       H  0.64002488  0.28008176  0.70839880     0.08000
F1869       F  0.66435464  0.18393138  0.70142813    -0.19400
F1870       F  0.64999113  0.15053083  0.67468631    -0.15700
F1871       F  0.64321865  0.15295367  0.72190454    -0.19200
F1872       F  0.60172683  0.28845535  0.67679962    -0.22500
F1873       F  0.57687827  0.27187929  0.70460102    -0.24000
F1874       F  0.57693487  0.26263607  0.65725969    -0.18000
F1875       F  0.66580632  0.32252057  0.76604535    -0.20500
F1876       F  0.64481224  0.35120326  0.73946140    -0.21700
F1877       F  0.66305657  0.31599456  0.71855576    -0.18800
F1878       F  0.58293228  0.23944881  0.79233935    -0.18900
F1879       F  0.60338411  0.20984158  0.76715801    -0.22800
F1880       F  0.57730267  0.23281076  0.74524066    -0.24400
C1881       C  0.51655003  0.36646575  0.82119118    -0.11200
C1882       C  0.50403700  0.38106510  0.84091276     0.11400
C1883       C  0.51260846  0.39501968  0.86505618    -0.03000
C1884       C  0.53378847  0.39569942  0.86748927    -0.05700
C1885       C  0.54634513  0.38132896  0.84758341    -0.16500
C1886       C  0.53766619  0.36598711  0.82426296     0.02400
C1887       C  0.48193778  0.38020702  0.83597314     0.12400
C1888       C  0.49942649  0.40813518  0.88854799     0.63000
H1889       H  0.54074531  0.40683304  0.88539758     0.12400
C1890       C  0.55056976  0.34948209  0.80249392     0.55100
H1891       H  0.50952586  0.35522440  0.80339933     0.08200
C1892       C  0.47178495  0.39987763  0.81726653    -0.05600
C1893       C  0.45114634  0.39600957  0.81152616    -0.06300
C1894       C  0.44087498  0.37237162  0.82257576    -0.15900
C1895       C  0.45088806  0.35329196  0.84204557    -0.01500
C1896       C  0.47137670  0.35748156  0.84823431    -0.09100
C1897       C  0.48298225  0.42365935  0.80203355     0.65200
H1898       H  0.44325606  0.41018138  0.79657493     0.10700
C1899       C  0.44089962  0.32779704  0.85612233     0.63600
H1900       H  0.47940091  0.34237305  0.86223521     0.08000
F1901       F  0.56497941  0.36732645  0.79119879    -0.19400
F1902       F  0.53914624  0.33909128  0.77980386    -0.15700
F1903       F  0.56004028  0.32612919  0.81576853    -0.19200
F1904       F  0.48837776  0.38669555  0.90125950    -0.22500
F1905       F  0.48628509  0.42870021  0.87709767    -0.24000
F1906       F  0.51079540  0.42119624  0.90981584    -0.18000
F1907       F  0.44501413  0.32795450  0.88538733    -0.20500
F1908       F  0.44864715  0.30246870  0.84434095    -0.21700
F1909       F  0.42015697  0.32830572  0.85276872    -0.18800
F1910       F  0.47017430  0.44056139  0.78508336    -0.18900
F1911       F  0.49766790  0.41161804  0.78438725    -0.22800
F1912       F  0.49205595  0.44143772  0.82197121    -0.24400
O1913       O  0.61310260  0.82694865  0.38950181    -0.77800
C1914       C  0.56949868  0.88796769  0.34878835     0.83300
O1915       O  0.63865549  0.84652689  0.29484615    -0.78900
O1916       O  0.61546214  0.94580603  0.31501434    -0.80400
O1917       O  0.63617835  0.92220012  0.41397012    -0.80200
O1918       O  0.63741902  0.84876725  0.41393780    -0.78800
Zn1919     Zn  0.60853339  0.85169931  0.35373343     1.55700
O1920       O  0.61411716  0.94785414  0.38791472    -0.80200
Cd1921     Cd  0.64255115  0.88548200  0.38948089     1.59700
Cd1922     Cd  0.64365870  0.88360215  0.31879862     1.59600
O1923       O  0.67316413  0.88543230  0.37956488    -0.80200
O1924       O  0.62569306  0.88539542  0.35347142    -1.90700
Cd1925     Cd  0.60887468  0.92202831  0.35183998     1.59900
O1926       O  0.67371880  0.88301903  0.33147364    -0.80200
O1927       O  0.57834451  0.91215131  0.34966924    -0.78800
C1928       C  0.62628212  0.82617228  0.29793045     0.83700
C1929       C  0.62537483  0.82789183  0.41075214     0.83400
O1930       O  0.57922692  0.86400990  0.35063578    -0.77800
C1931       C  0.62523994  0.94489567  0.41036481     0.84200
O1932       O  0.61430941  0.82611577  0.31933545    -0.77900
C1933       C  0.68272223  0.88391939  0.35581099     0.84300
C1934       C  0.62690531  0.94119228  0.29336203     0.84600
O1935       O  0.63836452  0.91876652  0.29163246    -0.80300
C1936       C  0.61324743  0.66053770  0.15406014     0.87200
C1937       C  0.61399929  0.63094376  0.16868188    -0.53000
C1938       C  0.61300639  0.60801192  0.15035040     0.10100
C1939       C  0.61110100  0.61669820  0.11819920     0.21100
C1940       C  0.62966920  0.65963986  0.13110522    -0.53800
C1941       C  0.62868986  0.63708402  0.11230029     0.10200
C1942       C  0.59328072  0.65944592  0.13650723    -0.53300
C1943       C  0.59226237  0.63673802  0.11749991     0.10800
H1944       H  0.61441456  0.62820855  0.19188099     0.15300
H1945       H  0.61038410  0.59806198  0.10315926     0.01000
H1946       H  0.64122626  0.67582830  0.12986041     0.15600
H1947       H  0.58020720  0.67334283  0.14035736     0.15400
C1948       C  0.67711017  0.63851344  0.06798232     0.87200
C1949       C  0.66878209  0.66563230  0.05272819    -0.53000
C1950       C  0.64865808  0.66550759  0.04656968     0.10100
C1951       C  0.63833414  0.63747635  0.05603920     0.21100
C1952       C  0.66372145  0.63423629  0.09440667    -0.53800
C1953       C  0.64349453  0.63429192  0.08853943     0.10200
C1954       C  0.67082047  0.61319027  0.04835122    -0.53300
C1955       C  0.65080010  0.61316949  0.04124318     0.10800
H1956       H  0.67840433  0.68302877  0.04600395     0.15300
H1957       H  0.62192890  0.63727886  0.05099978     0.01000
H1958       H  0.66957932  0.63220881  0.11618687     0.15600
H1959       H  0.68093242  0.59603142  0.04096968     0.15400
O1960       O  0.83929365  0.61501356  0.09562824    -0.77800
C1961       C  0.88528569  0.57746006  0.03948108     0.83300
O1962       O  0.89779866  0.60000417  0.15829902    -0.78900
O1963       O  0.93391678  0.63165820  0.07233976    -0.80400
O1964       O  0.87488002  0.69687546  0.05937879    -0.80200
O1965       O  0.83892502  0.66288263  0.09521363    -0.78800
Zn1966     Zn  0.86883621  0.60212582  0.09659960     1.55700
O1967       O  0.89819567  0.67131654  0.03571638    -0.80200
Cd1968     Cd  0.86935866  0.67221509  0.09600470     1.59700
Cd1969     Cd  0.90425748  0.63544880  0.13220999     1.59600
O1970       O  0.87435833  0.69671330  0.13290659    -0.80200
O1971       O  0.88635608  0.63566102  0.09666210    -1.90700
Cd1972     Cd  0.90345128  0.63462505  0.06110689     1.59900
O1973       O  0.89892802  0.67306221  0.15694791    -0.80200
O1974       O  0.89712104  0.59849639  0.03611679    -0.78800
C1975       C  0.88507936  0.57986931  0.15533116     0.83700
C1976       C  0.82961548  0.63909637  0.09517454     0.83400
O1977       O  0.87374966  0.57616206  0.06137247    -0.77800
C1978       C  0.88642782  0.69341988  0.03762519     0.84200
O1979       O  0.87373939  0.57851776  0.13306167    -0.77900
C1980       C  0.88637033  0.69430654  0.15440660     0.84300
C1981       C  0.94367232  0.63058224  0.09613735     0.84600
O1982       O  0.93482250  0.63179480  0.12053764    -0.80300
C1983       C  0.92127885  0.88769459  0.36799326     0.87200
C1984       C  0.91696630  0.85935945  0.38356711    -0.53000
C1985       C  0.89784780  0.85712714  0.39417745     0.10100
C1986       C  0.88417601  0.88368809  0.38677796     0.21100
C1987       C  0.90496576  0.88938199  0.34411317    -0.53800
C1988       C  0.88553493  0.88660115  0.35339075     0.10200
C1989       C  0.91458802  0.91212035  0.38840215    -0.53300
C1990       C  0.89551421  0.91000949  0.39899888     0.10800
H1991       H  0.92859606  0.84279500  0.38701569     0.15300
H1992       H  0.86872731  0.88255352  0.39515525     0.01000
H1993       H  0.90815112  0.89434967  0.32202175     0.15600
H1994       H  0.92437584  0.92971077  0.39431820     0.15400
C1995       C  0.83252116  0.89097875  0.31639312     0.87200
C1996       C  0.83700176  0.86414268  0.29791217    -0.53000
C1997       C  0.85634665  0.86147142  0.28853393     0.10100
C1998       C  0.87006176  0.88583783  0.29933301     0.21100
C1999       C  0.84827606  0.88942124  0.34124224    -0.53800
C2000       C  0.86793250  0.88658695  0.33265178     0.10200
C2001       C  0.84005297  0.91674568  0.29874553    -0.53300
C2002       C  0.85970303  0.91438321  0.28927631     0.10800
H2003       H  0.82559789  0.84852906  0.29245027     0.15300
H2004       H  0.88558849  0.88252019  0.29187586     0.01000
H2005       H  0.84439885  0.89277820  0.36360655     0.15600
H2006       H  0.83087744  0.93598638  0.29517712     0.15400
O2007       O  0.43587050  0.63534426  0.07896095    -0.77800
C2008       C  0.38918661  0.67101758  0.01983265     0.83300
O2009       O  0.37749213  0.65286227  0.13798391    -0.78900
O2010       O  0.34109388  0.61508252  0.05367246    -0.80400
O2011       O  0.39988525  0.55149348  0.04443305    -0.80200
O2012       O  0.43641126  0.58723351  0.07966509    -0.78800
Zn2013     Zn  0.40641276  0.64805151  0.07735593     1.55700
O2014       O  0.37731097  0.57641735  0.01846347    -0.80200
Cd2015     Cd  0.40590606  0.57779102  0.07970884     1.59700
Cd2016     Cd  0.37139500  0.61604891  0.11378164     1.59600
O2017       O  0.40068706  0.55435681  0.11715843    -0.80200
O2018       O  0.38897604  0.61440602  0.07843348    -1.90700
Cd2019     Cd  0.37162885  0.61394128  0.04268120     1.59900
O2020       O  0.37742819  0.58050164  0.14084101    -0.80200
O2021       O  0.37690506  0.65027001  0.01730653    -0.78800
C2022       C  0.39021401  0.67278237  0.13440894     0.83700
C2023       C  0.44548484  0.61119771  0.07978294     0.83400
O2024       O  0.40132182  0.67249741  0.04122557    -0.77800
C2025       C  0.38855969  0.55391384  0.02224408     0.84200
O2026       O  0.40170549  0.67344604  0.11249708    -0.77900
C2027       C  0.38941328  0.55856808  0.13903994     0.84300
C2028       C  0.33159487  0.61668567  0.07749947     0.84600
O2029       O  0.34084766  0.61751840  0.10175049    -0.80300
C2030       C  0.40246991  0.83782820  0.27817793     0.87200
C2031       C  0.42207519  0.84182050  0.29528290    -0.53000
C2032       C  0.42226454  0.86584518  0.31239197     0.10100
C2033       C  0.40233120  0.88373910  0.31169833     0.21100
C2034       C  0.38584075  0.83834562  0.30141814    -0.53800
C2035       C  0.38589460  0.86183728  0.31929909     0.10200
C2036       C  0.39841154  0.86647901  0.26231115    -0.53300
C2037       C  0.39872318  0.89047909  0.27939186     0.10800
H2038       H  0.43517877  0.82750415  0.29289496     0.15300
H2039       H  0.40242665  0.90322952  0.32567981     0.01000
H2040       H  0.37398087  0.82279761  0.30284145     0.15600
H2041       H  0.39593817  0.86782122  0.23919639     0.15400
C2042       C  0.33492190  0.86294782  0.35892977     0.87200
C2043       C  0.34062303  0.88709221  0.37988438    -0.53000
C2044       C  0.36034759  0.88664850  0.38837219     0.10100
C2045       C  0.37322259  0.86228963  0.37418528     0.21100
C2046       C  0.34988981  0.86580668  0.33364752    -0.53800
C2047       C  0.36983328  0.86595181  0.34142953     0.10200
C2048       C  0.34229085  0.83467036  0.37322952    -0.53300
C2049       C  0.36219620  0.83403313  0.38138785     0.10800
H2050       H  0.32978219  0.90321051  0.38764770     0.15300
H2051       H  0.38936414  0.86207515  0.38076542     0.01000
H2052       H  0.34559994  0.86438994  0.31115856     0.15600
H2053       H  0.33247664  0.81667037  0.37698124     0.15400
O2054       O  0.11672996  0.94119886  0.28715940    -0.77800
C2055       C  0.07098890  0.88367410  0.32013867     0.83300
O2056       O  0.13926516  0.90797129  0.38388642    -0.78900
O2057       O  0.11399008  0.81605932  0.34833436    -0.80400
O2058       O  0.14080183  0.84395424  0.25730559    -0.80200
O2059       O  0.13933471  0.91756079  0.26037510    -0.78800
Zn2060     Zn  0.11145651  0.91513036  0.32174411     1.55700
O2061       O  0.11470795  0.82212217  0.27707696    -0.80200
Cd2062     Cd  0.14521008  0.87985228  0.28397993     1.59700
Cd2063     Cd  0.14410664  0.87388017  0.35508709     1.59600
O2064       O  0.17540619  0.87837928  0.29656869    -0.80200
O2065       O  0.12745028  0.87910077  0.31896718    -1.90700
Cd2066     Cd  0.10944374  0.84522979  0.31487292     1.59900
O2067       O  0.17448975  0.87285637  0.34444306    -0.80200
O2068       O  0.07968742  0.85923686  0.31621506    -0.78800
C2069       C  0.12902104  0.93148835  0.38137226     0.83700
C2070       C  0.12773829  0.93958154  0.26470630     0.83400
O2071       O  0.08135918  0.90649199  0.32266367    -0.77800
C2072       C  0.12797426  0.82378253  0.25741959     0.84200
O2073       O  0.11837516  0.93684116  0.35889774    -0.77900
C2074       C  0.18419488  0.87520630  0.32093111     0.84300
C2075       C  0.12550306  0.81517789  0.37041704     0.84600
O2076       O  0.13757778  0.83550235  0.37620808    -0.80300
C2077       C  0.11552370  0.64830215  0.01596837     0.87200
C2078       C  0.09480221  0.64785697  0.03104144    -0.53000
C2079       C  0.09197221  0.62510797  0.04922307     0.10100
C2080       C  0.11111104  0.60491089  0.05171102     0.21100
C2081       C  0.13024627  0.64817549  0.04153944    -0.53800
C2082       C  0.12858593  0.62553027  0.06004259     0.10200
C2083       C  0.11783105  0.61851380  0.00196596    -0.53300
C2084       C  0.11567649  0.59576173  0.02007438     0.10800
H2085       H  0.08294999  0.66405757  0.02776132     0.15300
H2086       H  0.10953522  0.58612762  0.06619275     0.01000
H2087       H  0.14137497  0.66452694  0.04485550     0.15600
H2088       H  0.12103710  0.61562081  0.97918140     0.15400
C2089       C  0.17850749  0.62378744  0.10401345     0.87200
C2090       C  0.17109031  0.60086944  0.12500130    -0.53000
C2091       C  0.15128496  0.60364046  0.13231727     0.10100
C2092       C  0.13981024  0.62798306  0.11599175     0.21100
C2093       C  0.16421299  0.61977893  0.07766748    -0.53800
C2094       C  0.14392754  0.62184918  0.08375539     0.10200
C2095       C  0.17167219  0.65300877  0.11692093    -0.53300
C2096       C  0.15150000  0.65571899  0.12273897     0.10800
H2097       H  0.18039879  0.58309737  0.13284057     0.15300
H2098       H  0.12376361  0.62979083  0.12176482     0.01000
H2099       H  0.16936930  0.61623323  0.05579175     0.15600
H2100       H  0.18227017  0.66977855  0.12223294     0.15400
C2101       C  0.11457338  0.76875840  0.19897373    -0.11200
C2102       C  0.13323300  0.75435087  0.19520798     0.11400
C2103       C  0.15035950  0.76396552  0.21063183    -0.03000
C2104       C  0.14804861  0.78725800  0.23005164    -0.05700
C2105       C  0.12919152  0.80081215  0.23491063    -0.16500
C2106       C  0.11215155  0.79166039  0.21889394     0.02400
C2107       C  0.13453801  0.72917004  0.17504238     0.12400
C2108       C  0.17093988  0.74935767  0.20685099     0.63000
H2109       H  0.16093228  0.79459571  0.24228616     0.12400
C2110       C  0.09155527  0.80618048  0.22251999     0.55100
H2111       H  0.10177233  0.76142822  0.18656480     0.08200
C2112       C  0.12911658  0.70100618  0.18342269    -0.05600
C2113       C  0.13319962  0.67770960  0.16451921    -0.06300
C2114       C  0.14275954  0.68172309  0.13793330    -0.15900
C2115       C  0.14525339  0.71038309  0.12788912    -0.01500
C2116       C  0.14153605  0.73362612  0.14698965    -0.09100
C2117       C  0.11942887  0.69559486  0.21241865     0.65200
H2118       H  0.12960794  0.65600375  0.17090669     0.10700
C2119       C  0.14978107  0.71662306  0.09649582     0.63600
H2120       H  0.14427027  0.75556542  0.14029573     0.08000
F2121       F  0.08392862  0.79977388  0.24935496    -0.19400
F2122       F  0.07790643  0.79696537  0.20194795    -0.15700
F2123       F  0.09315263  0.83578037  0.21987787    -0.19200
F2124       F  0.17719971  0.75218775  0.17866293    -0.22500
F2125       F  0.16987193  0.72035133  0.21346000    -0.24000
F2126       F  0.18541011  0.76135499  0.22457184    -0.18000
F2127       F  0.14921188  0.74595480  0.09079715    -0.20500
F2128       F  0.13529020  0.70394048  0.07945234    -0.21700
F2129       F  0.16861558  0.70600588  0.08882689    -0.18800
F2130       F  0.11574033  0.66661946  0.21661091    -0.18900
F2131       F  0.10120062  0.71059627  0.21403521    -0.22800
F2132       F  0.13195180  0.70471194  0.23440000    -0.24400
C2133       C  0.11375615  0.00740147  0.21985169    -0.11200
C2134       C  0.13261130  0.50958804  0.20711766     0.11400
C2135       C  0.14682547  0.98890551  0.20555113    -0.03000
C2136       C  0.14479041  0.96625324  0.22546927    -0.05700
C2137       C  0.12773611  0.96395826  0.24327630    -0.16500
C2138       C  0.11168029  0.98482082  0.24000617     0.02400
C2139       C  0.13407024  0.53553148  0.18846897     0.12400
C2140       C  0.16859049  0.49342758  0.19406884     0.63000
H2141       H  0.15701901  0.95055733  0.22791505     0.12400
C2142       C  0.09232853  0.98359557  0.25734130     0.55100
H2143       H  0.10206643  0.02398574  0.21772690     0.08200
C2144       C  0.12676019  0.53645208  0.15973675    -0.05600
C2145       C  0.13121863  0.56053720  0.14250215    -0.06300
C2146       C  0.14236978  0.58358965  0.15342084    -0.15900
C2147       C  0.14794070  0.58365577  0.18307874    -0.01500
C2148       C  0.14363766  0.55956044  0.19998518    -0.09100
C2149       C  0.11171311  0.01563439  0.14376102     0.65200
H2150       H  0.12701512  0.56080597  0.11990946     0.10700
C2151       C  0.15875184  0.60791438  0.19824224     0.63600
H2152       H  0.14848095  0.55902806  0.22235869     0.08000
F2153       F  0.07801309  0.00375566  0.24797474    -0.19400
F2154       F  0.09635645  0.98929761  0.28604347    -0.15700
F2155       F  0.08402111  0.95658843  0.25461239    -0.19200
F2156       F  0.17744325  0.51884258  0.20254526    -0.22500
F2157       F  0.16489891  0.49439883  0.16474678    -0.24000
F2158       F  0.18227755  0.47101556  0.19932415    -0.18000
F2159       F  0.14759989  0.61688388  0.22187093    -0.20500
F2160       F  0.16142136  0.63157994  0.18102609    -0.21700
F2161       F  0.17748091  0.59795971  0.20766072    -0.18800
F2162       F  0.10543652  0.02232797  0.11600896    -0.18900
F2163       F  0.09473942  0.01281255  0.16059586    -0.22800
F2164       F  0.12217197  0.98950279  0.14292593    -0.24400
C2165       C  0.13786748  0.70588257  0.96452506    -0.11200
C2166       C  0.11880660  0.71910801  0.44953497     0.11400
C2167       C  0.09978134  0.70742910  0.45544096    -0.03000
C2168       C  0.10082957  0.68343367  0.97905252    -0.05700
C2169       C  0.11827438  0.67243969  0.99340435    -0.16500
C2170       C  0.13746384  0.68220311  0.98352797     0.02400
C2171       C  0.12112301  0.74410058  0.42981876     0.12400
C2172       C  0.08073322  0.71880564  0.44047031     0.63000
H2173       H  0.08648995  0.67360168  0.98275243     0.12400
C2174       C  0.15795782  0.66864200  0.99136333     0.55100
H2175       H  0.15221263  0.71469832  0.95827512     0.08200
C2176       C  0.12129315  0.77290939  0.44003467    -0.05600
C2177       C  0.12269439  0.79552772  0.41992154    -0.06300
C2178       C  0.12454532  0.79008929  0.39023326    -0.15900
C2179       C  0.12583033  0.76108144  0.38030654    -0.01500
C2180       C  0.12381839  0.73855318  0.40035901    -0.09100
C2181       C  0.12402119  0.77843228  0.97420411     0.65200
H2182       H  0.12234443  0.81774827  0.42724611     0.10700
C2183       C  0.13029564  0.75384619  0.34899493     0.63600
H2184       H  0.12432956  0.71627022  0.39321972     0.08000
F2185       F  0.16628433  0.68344169  0.01428310    -0.19400
F2186       F  0.17105499  0.67045547  0.96831671    -0.15700
F2187       F  0.15687983  0.63970325  0.99796981    -0.19200
F2188       F  0.08257813  0.71516400  0.41101989    -0.22500
F2189       F  0.07772047  0.74781371  0.44638975    -0.24000
F2190       F  0.06374047  0.70443190  0.44922983    -0.18000
F2191       F  0.13383942  0.72454404  0.34496514    -0.20500
F2192       F  0.14733855  0.76810416  0.34029869    -0.21700
F2193       F  0.11413291  0.76209097  0.33171028    -0.18800
F2194       F  0.12473448  0.80783904  0.97932136    -0.18900
F2195       F  0.14092431  0.76553768  0.98669267    -0.22800
F2196       F  0.10695913  0.76815114  0.98735050    -0.24400
C2197       C  0.12566776  0.50272380  0.42127221    -0.11200
C2198       C  0.12725568  0.49369800  0.45001974     0.11400
C2199       C  0.12381126  0.96236722  0.45718215    -0.03000
C2200       C  0.12513722  0.94313629  0.43353191    -0.05700
C2201       C  0.12919871  0.95282377  0.40548735    -0.16500
C2202       C  0.13320123  0.98243869  0.40112239     0.02400
C2203       C  0.12478739  0.51611241  0.47302686     0.12400
C2204       C  0.11818173  0.95119241  0.48673472     0.63000
H2205       H  0.12223351  0.92043717  0.43656845     0.12400
C2206       C  0.13910453  0.99381329  0.37176799     0.55100
H2207       H  0.12379047  0.52564238  0.41719710     0.08200
C2208       C  0.14085324  0.53314826  0.48341317    -0.05600
C2209       C  0.13629674  0.55737441  0.50085398    -0.06300
C2210       C  0.11814496  0.56571077  0.00840712    -0.15900
C2211       C  0.10175929  0.55096754  0.99578693    -0.01500
C2212       C  0.10564182  0.52672486  0.97814169    -0.09100
C2213       C  0.16290714  0.52773778  0.47608640     0.65200
H2214       H  0.14842336  0.57124188  0.50765960     0.10700
C2215       C  0.08028040  0.56182785  0.99951802     0.63600
H2216       H  0.09329246  0.51610944  0.96737504     0.08000
F2217       F  0.14021367  0.48293216  0.35113124    -0.19400
F2218       F  0.14527875  0.02213593  0.37326540    -0.15700
F2219       F  0.12281266  0.99279914  0.35308884    -0.19200
F2220       F  0.10497627  0.96369883  0.99775881    -0.22500
F2221       F  0.14869598  0.46552403  0.49948798    -0.24000
F2222       F  0.11725703  0.92137078  0.48713294    -0.18000
F2223       F  0.06647511  0.54387522  0.98652200    -0.20500
F2224       F  0.07816180  0.58880416  0.98713571    -0.21700
F2225       F  0.07588684  0.56329735  0.02854277    -0.18800
F2226       F  0.17377756  0.52352139  0.50132793    -0.18900
F2227       F  0.17022410  0.55165849  0.46213854    -0.22800
F2228       F  0.16615471  0.50392402  0.45861225    -0.24400
C2229       C  0.27641568  0.85474052  0.36036808    -0.11200
C2230       C  0.27074606  0.86541393  0.33340029     0.11400
C2231       C  0.28555956  0.87651883  0.31505471    -0.03000
C2232       C  0.30588939  0.87559813  0.32421785    -0.05700
C2233       C  0.31209071  0.86400840  0.35120548    -0.16500
C2234       C  0.29646525  0.85506750  0.37039360     0.02400
C2235       C  0.24877527  0.86798824  0.32705895     0.12400
C2236       C  0.27983207  0.88964182  0.28605824     0.63000
H2237       H  0.31679647  0.88543191  0.31048121     0.12400
C2238       C  0.29918887  0.84583786  0.40166522     0.55100
H2239       H  0.26463325  0.84719620  0.37443955     0.08200
C2240       C  0.23740781  0.84430960  0.31727544    -0.05600
C2241       C  0.21632780  0.84793970  0.31424509    -0.06300
C2242       C  0.20643892  0.87385723  0.32206760    -0.15900
C2243       C  0.21775004  0.89734149  0.33223157    -0.01500
C2244       C  0.23885485  0.89406864  0.33431001    -0.09100
C2245       C  0.24736696  0.81504666  0.31143129     0.65200
H2246       H  0.20726362  0.83014240  0.30695530     0.10700
C2247       C  0.20745440  0.92557095  0.34104717     0.63600
H2248       H  0.24780389  0.91160026  0.34250891     0.08000
F2249       F  0.29846918  0.81608981  0.40338402    -0.19400
F2250       F  0.28374013  0.85759820  0.41825815    -0.15700
F2251       F  0.31680795  0.85486899  0.41392206    -0.19200
F2252       F  0.26737144  0.91361873  0.29007823    -0.22500
F2253       F  0.26978613  0.86969188  0.26944738    -0.24000
F2254       F  0.29658854  0.89816817  0.27085421    -0.18000
F2255       F  0.19476710  0.92092866  0.36404792    -0.20500
F2256       F  0.19626231  0.93653157  0.31815482    -0.21700
F2257       F  0.22125079  0.94606986  0.34928160    -0.18800
F2258       F  0.23379921  0.79558121  0.30029876    -0.18900
F2259       F  0.25516919  0.80379590  0.33681785    -0.22800
F2260       F  0.26283516  0.81772601  0.29185768    -0.24400
C2261       C  0.23714047  0.61355570  0.11224549    -0.11200
C2262       C  0.24396323  0.62157723  0.08515065     0.11400
C2263       C  0.22967645  0.63022843  0.06394008    -0.03000
C2264       C  0.20888084  0.63036706  0.07084267    -0.05700
C2265       C  0.20171131  0.62258623  0.09841328    -0.16500
C2266       C  0.21673963  0.61631679  0.12021819     0.02400
C2267       C  0.26633499  0.62220769  0.08086468     0.12400
C2268       C  0.23641749  0.63944261  0.03420487     0.63000
H2269       H  0.19820819  0.63774875  0.05470370     0.12400
C2270       C  0.21282950  0.61406339  0.15243277     0.55100
H2271       H  0.24833351  0.60669846  0.12809829     0.08200
C2272       C  0.27835480  0.64360939  0.09405912    -0.05600
C2273       C  0.29955087  0.64113803  0.09204435    -0.06300
C2274       C  0.30910604  0.61828160  0.07717414    -0.15900
C2275       C  0.29711022  0.59719174  0.06348732    -0.01500
C2276       C  0.27587305  0.59942865  0.06581730    -0.09100
C2277       C  0.26889936  0.66877050  0.11065922     0.65200
H2278       H  0.30893174  0.65698973  0.10243366     0.10700
C2279       C  0.30671091  0.57178447  0.04754356     0.63600
H2280       H  0.26649990  0.58298605  0.05643120     0.08000
F2281       F  0.22921929  0.62365379  0.16816299    -0.19400
F2282       F  0.20983584  0.58563588  0.15995089    -0.15700
F2283       F  0.19666741  0.63113329  0.16071781    -0.19200
F2284       F  0.24582688  0.61640758  0.02038785    -0.22500
F2285       F  0.24979651  0.66181331  0.03657163    -0.24000
F2286       F  0.22032659  0.64878987  0.01721042    -0.18000
F2287       F  0.32025482  0.55732975  0.06548453    -0.20500
F2288       F  0.31674700  0.58149808  0.02353326    -0.21700
F2289       F  0.29248149  0.55230135  0.03837269    -0.18800
F2290       F  0.28303975  0.68906398  0.11815358    -0.18900
F2291       F  0.26031626  0.65895574  0.13574859    -0.22800
F2292       F  0.25418145  0.68241808  0.09404281    -0.24400
C2293       C  0.37202369  0.75813910  0.41092366    -0.11200
C2294       C  0.37946388  0.76456817  0.43844025     0.11400
C2295       C  0.38454796  0.79340508  0.44508347    -0.03000
C2296       C  0.38072938  0.81513842  0.42434444    -0.05700
C2297       C  0.37123330  0.80913250  0.39790164    -0.16500
C2298       C  0.36791957  0.77978728  0.39039511     0.02400
C2299       C  0.38119516  0.74068966  0.45995200     0.12400
C2300       C  0.39620134  0.80071160  0.97174883     0.63000
H2301       H  0.38405564  0.83734069  0.42941585     0.12400
C2302       C  0.36018784  0.76983631  0.36125327     0.55100
H2303       H  0.36899648  0.73583726  0.40558901     0.08200
C2304       C  0.36714144  0.72963725  0.97112773    -0.05600
C2305       C  0.36945274  0.70692385  0.99112887    -0.06300
C2306       C  0.38844790  0.69463902  0.99798158    -0.15900
C2307       C  0.40580517  0.70494700  0.98379561    -0.01500
C2308       C  0.40035496  0.72872928  0.46633927    -0.09100
C2309       C  0.34627451  0.74270256  0.96527258     0.65200
H2310       H  0.35634521  0.69877403  0.00201270     0.10700
C2311       C  0.42667620  0.69211683  0.98984258     0.63600
H2312       H  0.41323981  0.73713776  0.45513952     0.08000
F2313       F  0.34076244  0.75997116  0.36418762    -0.19400
F2314       F  0.37240996  0.74742992  0.35119442    -0.15700
F2315       F  0.36018700  0.79130062  0.34072986    -0.19200
F2316       F  0.41483563  0.78724579  0.97562300    -0.22500
F2317       F  0.38329605  0.79192052  0.99315463    -0.24000
F2318       F  0.39865826  0.83017591  0.97467212    -0.18000
F2319       F  0.43837578  0.70609401  0.47506128    -0.20500
F2320       F  0.42649206  0.66245652  0.98638697    -0.21700
F2321       F  0.43247085  0.69864739  0.01772552    -0.18800
F2322       F  0.33176538  0.73088008  0.98274266    -0.18900
F2323       F  0.33749879  0.73555537  0.43931607    -0.22800
F2324       F  0.34631887  0.77212338  0.97034764    -0.24400
C2325       C  0.39937979  0.98670231  0.97619565    -0.11200
C2326       C  0.37785756  0.98478937  0.46095133     0.11400
C2327       C  0.36425418  0.50709399  0.46376432    -0.03000
C2328       C  0.37052196  0.52850103  0.98267913    -0.05700
C2329       C  0.38772833  0.52969974  0.00061714    -0.16500
C2330       C  0.40299909  0.50760779  0.99768823     0.02400
C2331       C  0.37554304  0.95862205  0.44244563     0.12400
C2332       C  0.34063715  0.99967943  0.45390228     0.63000
H2333       H  0.35884248  0.54503914  0.98497319     0.12400
C2334       C  0.42235163  0.50727357  0.01543564     0.55100
H2335       H  0.40917306  0.97515685  0.46831602     0.08200
C2336       C  0.38273377  0.95677056  0.41374817    -0.05600
C2337       C  0.37879819  0.93170601  0.39739014    -0.06300
C2338       C  0.36799473  0.90871518  0.40886455    -0.15900
C2339       C  0.36182943  0.91008767  0.43814443    -0.01500
C2340       C  0.36580400  0.93499452  0.45431505    -0.09100
C2341       C  0.39401229  0.98143124  0.40027301     0.65200
H2342       H  0.38334913  0.93038883  0.37503158     0.10700
C2343       C  0.35044167  0.88659326  0.45331518     0.63600
H2344       H  0.36293319  0.93564626  0.97699698     0.08000
F2345       F  0.43583324  0.48584445  0.00648794    -0.19400
F2346       F  0.42131147  0.00637236  0.03897620    -0.15700
F2347       F  0.43177655  0.53343464  0.01270304    -0.19200
F2348       F  0.33263357  0.97375248  0.46226793    -0.22500
F2349       F  0.34235195  0.00003522  0.42423080    -0.24000
F2350       F  0.33043369  0.52577408  0.45620877    -0.18000
F2351       F  0.35906142  0.88127726  0.48006807    -0.20500
F2352       F  0.35076279  0.86091004  0.43838871    -0.21700
F2353       F  0.33060510  0.89567623  0.45708829    -0.18800
F2354       F  0.39800709  0.97638176  0.37142703    -0.18900
F2355       F  0.41222789  0.98487187  0.41437145    -0.22800
F2356       F  0.38447543  0.50836878  0.39727229    -0.24400
C2357       C  0.37777087  0.96003244  0.24597615    -0.11200
C2358       C  0.39435406  0.96849541  0.22955042     0.11400
C2359       C  0.41320344  0.95385276  0.23326749    -0.03000
C2360       C  0.41429205  0.92940479  0.25127907    -0.05700
C2361       C  0.39737854  0.91977758  0.26624261    -0.16500
C2362       C  0.37894877  0.93571071  0.26423455     0.02400
C2363       C  0.39119297  0.99118849  0.20700079     0.12400
C2364       C  0.43195105  0.96364718  0.21774181     0.63000
H2365       H  0.42820333  0.91678024  0.25282325     0.12400
C2366       C  0.36042827  0.92614068  0.28025933     0.55100
H2367       H  0.36360283  0.97185477  0.24328389     0.08200
C2368       C  0.38351326  0.98434794  0.17926674    -0.05600
C2369       C  0.38524192  0.50842261  0.15642161    -0.06300
C2370       C  0.39031135  0.53700432  0.16280730    -0.15900
C2371       C  0.39693109  0.54398058  0.19108230    -0.01500
C2372       C  0.39845781  0.52186780  0.21197377    -0.09100
C2373       C  0.37709175  0.95390672  0.17187603     0.65200
H2374       H  0.38014130  0.50350726  0.13477978     0.10700
C2375       C  0.40307360  0.57441320  0.19878491     0.63600
H2376       H  0.40374046  0.52662980  0.23355735     0.08000
F2377       F  0.35527362  0.89886338  0.27105835    -0.19400
F2378       F  0.34401421  0.94459239  0.27563289    -0.15700
F2379       F  0.36448764  0.92558738  0.30950716    -0.19200
F2380       F  0.43621266  0.99157611  0.22592762    -0.22500
F2381       F  0.42888608  0.96281203  0.18826727    -0.24000
F2382       F  0.44865424  0.94630928  0.22420439    -0.18000
F2383       F  0.38668928  0.59320603  0.19588712    -0.20500
F2384       F  0.41831447  0.58291432  0.18065280    -0.21700
F2385       F  0.41007346  0.57630581  0.22688045    -0.18800
F2386       F  0.37091385  0.95156602  0.14343561    -0.18900
F2387       F  0.36115579  0.94633170  0.18917200    -0.22800
F2388       F  0.39299806  0.93455468  0.17623125    -0.24400
C2389       C  0.41141121  0.78749926  0.21185916    -0.11200
C2390       C  0.39938654  0.76411896  0.21871844     0.11400
C2391       C  0.39079235  0.76266073  0.24641315    -0.03000
C2392       C  0.39314041  0.78606404  0.26547379    -0.05700
C2393       C  0.40352337  0.81127071  0.25782869    -0.16500
C2394       C  0.41443772  0.81058057  0.23115560     0.02400
C2395       C  0.39671569  0.74092641  0.19678720     0.12400
C2396       C  0.37912184  0.73643680  0.25576958     0.63000
H2397       H  0.38713249  0.78407277  0.28684891     0.12400
C2398       C  0.42953970  0.83270342  0.22100164     0.55100
H2399       H  0.41879577  0.78751013  0.19105417     0.08200
C2400       C  0.38213770  0.74336464  0.17440738    -0.05600
C2401       C  0.38016627  0.72028251  0.15477131    -0.06300
C2402       C  0.39235789  0.69519597  0.15683694    -0.15900
C2403       C  0.40703194  0.69286659  0.17917194    -0.01500
C2404       C  0.40913995  0.71608469  0.19846859    -0.09100
C2405       C  0.36898124  0.77043459  0.17111754     0.65200
H2406       H  0.36925531  0.72179566  0.13733692     0.10700
C2407       C  0.42090452  0.66668311  0.18377988     0.63600
H2408       H  0.42048460  0.71465761  0.21537717     0.08000
F2409       F  0.42148246  0.84750648  0.19762310    -0.19400
F2410       F  0.44705815  0.81841907  0.21232145    -0.15700
F2411       F  0.43512285  0.85245129  0.24159913    -0.19200
F2412       F  0.39180215  0.71233985  0.25614968    -0.22500
F2413       F  0.36336077  0.73172667  0.23681121    -0.24000
F2414       F  0.37109124  0.73988677  0.28307004    -0.18000
F2415       F  0.44063585  0.67445843  0.17907024    -0.20500
F2416       F  0.41663174  0.64372129  0.16588167    -0.21700
F2417       F  0.41919444  0.65730407  0.21192853    -0.18800
F2418       F  0.35526305  0.76799017  0.14867845    -0.18900
F2419       F  0.38095410  0.79380548  0.16554892    -0.22800
F2420       F  0.35828346  0.77563555  0.19615511    -0.24400
C2421       C  0.97976294  0.89552154  0.36926701    -0.11200
C2422       C  0.98446224  0.89428281  0.34002416     0.11400
C2423       C  0.96890142  0.89010335  0.31967948    -0.03000
C2424       C  0.94896375  0.88754022  0.32954392    -0.05700
C2425       C  0.94372903  0.88950510  0.35909553    -0.16500
C2426       C  0.95998350  0.89248874  0.37952275     0.02400
C2427       C  0.00619758  0.89285055  0.33216362     0.12400
C2428       C  0.97335710  0.88826110  0.28757741     0.63000
H2429       H  0.93772127  0.88260418  0.31367572     0.12400
C2430       C  0.95848396  0.89253019  0.41236704     0.55100
H2431       H  0.99207737  0.89771366  0.38458340     0.08200
C2432       C  0.01853285  0.91732724  0.33190821    -0.05600
C2433       C  0.03937938  0.91336843  0.32686328    -0.06300
C2434       C  0.04837850  0.88573678  0.32267904    -0.15900
C2435       C  0.03562805  0.86120919  0.32247848    -0.01500
C2436       C  0.01485961  0.86545755  0.32753997    -0.09100
C2437       C  0.00978603  0.94737079  0.33769239     0.65200
H2438       H  0.04889235  0.93204484  0.32698360     0.10700
C2439       C  0.04342274  0.83043061  0.31749198     0.63600
H2440       H  0.00502903  0.84713270  0.32861138     0.08000
F2441       F  0.96278120  0.91982122  0.42252064    -0.19400
F2442       F  0.97265662  0.87314895  0.42357851    -0.15700
F2443       F  0.94013938  0.88484976  0.42323066    -0.19200
F2444       F  0.98549745  0.86433470  0.28179637    -0.22500
F2445       F  0.98312984  0.91277431  0.27889445    -0.24000
F2446       F  0.95592290  0.88605332  0.27119439    -0.18000
F2447       F  0.05672704  0.82242183  0.33928176    -0.20500
F2448       F  0.05289580  0.82848121  0.29105015    -0.21700
F2449       F  0.02802712  0.81070177  0.31729346    -0.18800
F2450       F  0.02402720  0.96847431  0.33418742    -0.18900
F2451       F  0.00278634  0.94906960  0.36565378    -0.22800
F2452       F  0.99397020  0.95327925  0.31891571    -0.24400
C2453       C  0.86477328  0.52322132  0.20702147    -0.11200
C2454       C  0.88253845  0.51275540  0.22016281     0.11400
C2455       C  0.90120511  0.52504589  0.21280201    -0.03000
C2456       C  0.90139417  0.54720245  0.19190386    -0.05700
C2457       C  0.88358535  0.55729611  0.17820249    -0.16500
C2458       C  0.86484799  0.54575647  0.18676502     0.02400
C2459       C  0.87773300  0.98893189  0.24016154     0.12400
C2460       C  0.92081135  0.51458325  0.22673204     0.63000
H2461       H  0.91558904  0.55635580  0.18558538     0.12400
C2462       C  0.84486099  0.55803938  0.17580326     0.55100
H2463       H  0.84791406  0.01149353  0.20956994     0.08200
C2464       C  0.86822506  0.99224229  0.26720527    -0.05600
C2465       C  0.86417712  0.96737214  0.28341676    -0.06300
C2466       C  0.86951977  0.93925575  0.27388664    -0.15900
C2467       C  0.88177989  0.93665535  0.24869856    -0.01500
C2468       C  0.88455989  0.96142982  0.23159992    -0.09100
C2469       C  0.86818453  0.52065299  0.28109983     0.65200
H2470       H  0.85606512  0.96974842  0.30349290     0.10700
C2471       C  0.89310570  0.90911346  0.24010283     0.63600
H2472       H  0.89218890  0.95961102  0.21109446     0.08000
F2473       F  0.82867683  0.54762837  0.19105319    -0.19400
F2474       F  0.84219484  0.55072520  0.14716563    -0.15700
F2475       F  0.84466906  0.58774788  0.17889935    -0.19200
F2476       F  0.92480730  0.48621298  0.21900726    -0.22500
F2477       F  0.91935001  0.51638477  0.25638006    -0.24000
F2478       F  0.93698679  0.53091132  0.21831046    -0.18000
F2479       F  0.90256461  0.91170938  0.21373211    -0.20500
F2480       F  0.88029714  0.88635372  0.23784767    -0.21700
F2481       F  0.90795170  0.90300180  0.26035219    -0.18800
F2482       F  0.86272791  0.51906839  0.30979310    -0.18900
F2483       F  0.85230771  0.53344129  0.26606793    -0.22800
F2484       F  0.88480690  0.53802352  0.27929853    -0.24400
C2485       C  0.89599147  0.76059183  0.20119074    -0.11200
C2486       C  0.87866688  0.76133863  0.21853794     0.11400
C2487       C  0.86437580  0.73912808  0.21560185    -0.03000
C2488       C  0.86784426  0.71710759  0.19503861    -0.05700
C2489       C  0.88499372  0.71662169  0.17742713    -0.16500
C2490       C  0.89941705  0.73849252  0.18062831     0.02400
C2491       C  0.87447287  0.78753639  0.23662929     0.12400
C2492       C  0.84535375  0.73894262  0.23377905     0.63000
H2493       H  0.85690306  0.70032153  0.19204816     0.12400
C2494       C  0.91786281  0.73899022  0.16148099     0.55100
H2495       H  0.90647986  0.77808315  0.20320208     0.08200
C2496       C  0.88316506  0.79198130  0.26423831    -0.05600
C2497       C  0.87737596  0.81691999  0.28014079    -0.06300
C2498       C  0.86313754  0.83715884  0.26934493    -0.15900
C2499       C  0.85520389  0.83316954  0.24107648    -0.01500
C2500       C  0.86112572  0.80847723  0.22533663    -0.09100
C2501       C  0.89827371  0.77034738  0.27685908     0.65200
H2502       H  0.88352535  0.82044044  0.30150880     0.10700
C2503       C  0.83983389  0.85365750  0.22721172     0.63600
H2504       H  0.85481759  0.80487984  0.20405463     0.08000
F2505       F  0.92936787  0.71405191  0.16556621    -0.19400
F2506       F  0.92984926  0.76237029  0.16748961    -0.15700
F2507       F  0.91188619  0.74065565  0.13290792    -0.19200
F2508       F  0.83320218  0.76273905  0.22743895    -0.22500
F2509       F  0.85042000  0.73956218  0.26269850    -0.24000
F2510       F  0.83419282  0.71450392  0.22880294    -0.18000
F2511       F  0.84138875  0.85292283  0.19746858    -0.20500
F2512       F  0.84264319  0.88185323  0.23562130    -0.21700
F2513       F  0.82065001  0.84541581  0.23466888    -0.18800
F2514       F  0.90429658  0.77809703  0.30437863    -0.18900
F2515       F  0.91521977  0.76868380  0.25966611    -0.22800
F2516       F  0.88982018  0.74339209  0.27830924    -0.24400
C2517       C  0.90224461  0.51426375  0.48368854    -0.11200
C2518       C  0.88353151  0.50370701  0.47466510     0.11400
C2519       C  0.86562090  0.51507701  0.48728077    -0.03000
C2520       C  0.86705160  0.53780636  0.50748370    -0.05700
C2521       C  0.88574273  0.54917554  0.51572688    -0.16500
C2522       C  0.90286945  0.54108962  0.00602522     0.02400
C2523       C  0.88190092  0.97952421  0.45836614     0.12400
C2524       C  0.84512913  0.50308074  0.47961557     0.63000
H2525       H  0.85347480  0.54704142  0.51697861     0.12400
C2526       C  0.92364295  0.54977696  0.01653842     0.55100
H2527       H  0.91399680  0.00264467  0.48204442     0.08200
C2528       C  0.88583074  0.98503497  0.42895208    -0.05600
C2529       C  0.88804649  0.96153825  0.40979366    -0.06300
C2530       C  0.88734057  0.93273557  0.41919340    -0.15900
C2531       C  0.88273809  0.92731112  0.44857091    -0.01500
C2532       C  0.87984788  0.95093943  0.46753065    -0.09100
C2533       C  0.88758681  0.51411903  0.41103614     0.65200
H2534       H  0.89176797  0.96544313  0.38746144     0.10700
C2535       C  0.88253779  0.89698003  0.46063057     0.63600
H2536       H  0.87706170  0.94728735  0.49018299     0.08000
F2537       F  0.92768469  0.57734835  0.00719643    -0.19400
F2538       F  0.93871386  0.53137434  0.00626138    -0.15700
F2539       F  0.92441929  0.54898573  0.04633483    -0.19200
F2540       F  0.84449470  0.47434204  0.48739086    -0.22500
F2541       F  0.84169530  0.50541122  0.45031057    -0.24000
F2542       F  0.82961932  0.51770170  0.49370546    -0.18000
F2543       F  0.87828902  0.89674316  0.48980549    -0.20500
F2544       F  0.90130545  0.88411452  0.45688835    -0.21700
F2545       F  0.86799946  0.88107246  0.44680510    -0.18800
F2546       F  0.89033792  0.01644447  0.38841458    -0.18900
F2547       F  0.90407606  0.52798174  0.42245136    -0.22800
F2548       F  0.87025591  0.52983877  0.41766830    -0.24400
C2549       C  0.87251686  0.79365596  0.43246627    -0.11200
C2550       C  0.88677051  0.78754763  0.45423114     0.11400
C2551       C  0.90442406  0.80401484  0.45607262    -0.03000
C2552       C  0.90704349  0.82641694  0.43622674    -0.05700
C2553       C  0.89276105  0.83311547  0.41448601    -0.16500
C2554       C  0.87521293  0.81606886  0.41229623     0.02400
C2555       C  0.88382037  0.76231740  0.47347686     0.12400
C2556       C  0.92069799  0.79757679  0.47857512     0.63000
H2557       H  0.92054813  0.83901643  0.43759691     0.12400
C2558       C  0.85960131  0.82034729  0.38855140     0.55100
H2559       H  0.85926908  0.78042263  0.43122999     0.08200
C2560       C  0.87287634  0.76438887  0.49944730    -0.05600
C2561       C  0.87735241  0.74338073  0.02081408    -0.06300
C2562       C  0.88362378  0.71440425  0.51168644    -0.15900
C2563       C  0.89312232  0.71179025  0.48420829    -0.01500
C2564       C  0.89311594  0.73599701  0.46583690    -0.09100
C2565       C  0.86083214  0.79161799  0.50710619     0.65200
H2566       H  0.87071944  0.74684372  0.04182565     0.10700
C2567       C  0.90318021  0.68390501  0.47371823     0.63600
H2568       H  0.90092456  0.73491220  0.44541043     0.08000
F2569       F  0.84676003  0.84313643  0.39555520    -0.19400
F2570       F  0.84804755  0.79604721  0.38497476    -0.15700
F2571       F  0.86883240  0.82562946  0.36251963    -0.19200
F2572       F  0.92900985  0.77034641  0.47393559    -0.22500
F2573       F  0.91254178  0.79873618  0.50589704    -0.24000
F2574       F  0.93613616  0.81719308  0.47755361    -0.18000
F2575       F  0.90922258  0.68577238  0.44527380    -0.20500
F2576       F  0.88976303  0.66153154  0.47545619    -0.21700
F2577       F  0.92016970  0.67764863  0.49019278    -0.18800
F2578       F  0.85709090  0.79385781  0.03477872    -0.18900
F2579       F  0.84650058  0.79719888  0.48595747    -0.22800
F2580       F  0.87345299  0.81487935  0.50919585    -0.24400
C2581       C  0.04498801  0.61805914  0.09744933    -0.11200
C2582       C  0.02958546  0.61760489  0.07656560     0.11400
C2583       C  0.03484566  0.61757910  0.04706175    -0.03000
C2584       C  0.05532977  0.61900438  0.03953878    -0.05700
C2585       C  0.07097415  0.61959931  0.06020819    -0.16500
C2586       C  0.06562038  0.61917446  0.08979641     0.02400
C2587       C  0.00803800  0.62053309  0.08577071     0.14000
C2588       C  0.01882903  0.61703620  0.02347152     0.63000
H2589       H  0.05922561  0.62102640  0.01710768     0.12400
C2590       C  0.08135217  0.62237878  0.11312858     0.55100
H2591       H  0.04061493  0.61877432  0.11988512     0.08200
C2592       C  0.99647263  0.59668945  0.09438009    -0.05600
C2593       C  0.97547104  0.60083642  0.09855682    -0.06300
C2594       C  0.96602626  0.62807600  0.09500325    -0.15900
C2595       C  0.97789823  0.65221515  0.08871004    -0.01500
C2596       C  0.99876785  0.64803801  0.08425812    -0.09100
C2597       C  0.00630539  0.56715225  0.09904270     0.65200
H2598       H  0.96617849  0.58272570  0.10399129     0.10700
C2599       C  0.96839676  0.68222592  0.08660601     0.63600
H2600       H  0.00797163  0.66614364  0.07849212     0.08000
F2601       F  0.09475343  0.59916905  0.11221456    -0.19400
F2602       F  0.07295089  0.62331481  0.14037052    -0.15700
F2603       F  0.09136077  0.64786180  0.10883294    -0.19200
F2604       F  0.00757186  0.64250721  0.02380437    -0.22500
F2605       F  0.00616363  0.59414436  0.02771700    -0.24000
F2606       F  0.02726856  0.61391848  0.99638319    -0.18000
F2607       F  0.98269174  0.70305234  0.08211766    -0.20500
F2608       F  0.95840344  0.68881588  0.11195781    -0.21700
F2609       F  0.95477187  0.68330487  0.06393251    -0.18800
F2610       F  0.99238271  0.54686044  0.10702938    -0.18900
F2611       F  0.02063607  0.56881106  0.12072338    -0.22800
F2612       F  0.01555955  0.55767299  0.07402186    -0.24400
C2613       C  0.77376163  0.61966459  0.10062519    -0.11200
C2614       C  0.76456830  0.64348724  0.08711835     0.11400
C2615       C  0.77638735  0.66686448  0.07832920    -0.03000
C2616       C  0.79750671  0.66444992  0.08135917    -0.05700
C2617       C  0.80704664  0.63988262  0.09367917    -0.16500
C2618       C  0.79480156  0.61745950  0.10442101     0.02400
C2619       C  0.74251410  0.64275829  0.08178075     0.12400
C2620       C  0.76440249  0.68889537  0.56120378     0.63000
H2621       H  0.80675214  0.68183085  0.07384428     0.12400
C2622       C  0.80352856  0.59183567  0.12088162     0.55100
H2623       H  0.76419428  0.60247329  0.10779973     0.08200
C2624       C  0.73450775  0.62884732  0.05736396    -0.05600
C2625       C  0.71348525  0.62883774  0.05357656    -0.06300
C2626       C  0.69994823  0.64110084  0.07392203    -0.15900
C2627       C  0.70844864  0.65740178  0.09722169    -0.01500
C2628       C  0.72952045  0.65633052  0.10142785    -0.09100
C2629       C  0.74816440  0.61367411  0.03554824     0.65200
H2630       H  0.70771633  0.61970389  0.03390797     0.10700
C2631       C  0.69672775  0.67674679  0.11817247     0.63600
H2632       H  0.73609077  0.66708289  0.11990967     0.08000
F2633       F  0.81453481  0.57402230  0.10257906    -0.19400
F2634       F  0.78865902  0.57548255  0.13327453    -0.15700
F2635       F  0.81573710  0.60171504  0.14280478    -0.19200
F2636       F  0.75203958  0.69882227  0.58314186    -0.22500
F2637       F  0.75293078  0.68526745  0.53654312    -0.24000
F2638       F  0.77839988  0.70989362  0.55568577    -0.18000
F2639       F  0.69422633  0.66226458  0.14387420    -0.20500
F2640       F  0.67817294  0.68584464  0.10777640    -0.21700
F2641       F  0.70741619  0.70152042  0.12376774    -0.18800
F2642       F  0.73736345  0.60249161  0.01262850    -0.18900
F2643       F  0.75856436  0.59108027  0.04872645    -0.22800
F2644       F  0.76186796  0.63277430  0.02460058    -0.24400
C2645       C  0.50172440  0.60052701  0.06501487    -0.11200
C2646       C  0.51005260  0.61505986  0.08866011     0.11400
C2647       C  0.49712633  0.62778308  0.10960991    -0.03000
C2648       C  0.47612315  0.62598082  0.10577346    -0.05700
C2649       C  0.46776660  0.61130606  0.08225046    -0.16500
C2650       C  0.48068148  0.59793586  0.06170369     0.02400
C2651       C  0.53232462  0.61786565  0.09056357     0.12400
C2652       C  0.50548898  0.64316556  0.13593698     0.63000
H2653       H  0.46596797  0.63597035  0.12126838     0.12400
C2654       C  0.47224920  0.58152907  0.03618911     0.55100
H2655       H  0.51188976  0.59128325  0.04912038     0.08200
C2656       C  0.54520188  0.59549029  0.10124249    -0.05600
C2657       C  0.56556181  0.60166600  0.10688537    -0.06300
C2658       C  0.57313132  0.62940416  0.10251626    -0.15900
C2659       C  0.56085199  0.65044430  0.08827832    -0.01500
C2660       C  0.54051513  0.64437512  0.08290883    -0.09100
C2661       C  0.53729881  0.56571096  0.10778307     0.65200
H2662       H  0.57529387  0.58542497  0.11682917     0.10700
C2663       C  0.56832285  0.67958317  0.07867334     0.63600
H2664       H  0.53070311  0.66089774  0.07347037     0.08000
F2665       F  0.46223691  0.55762183  0.04590096    -0.19400
F2666       F  0.48730669  0.57204797  0.01765515    -0.15700
F2667       F  0.45896155  0.59916267  0.02083122    -0.19200
F2668       F  0.51555814  0.66753452  0.12758644    -0.22500
F2669       F  0.51872582  0.62494837  0.15068247    -0.24000
F2670       F  0.49035245  0.65172140  0.15476311    -0.18000
F2671       F  0.56235546  0.68456061  0.05046212    -0.20500
F2672       F  0.58912385  0.68126298  0.07969196    -0.21700
F2673       F  0.55994772  0.70097587  0.09599455    -0.18800
F2674       F  0.55227064  0.54742924  0.11872685    -0.18900
F2675       F  0.52991435  0.55337553  0.08282717    -0.22800
F2676       F  0.52198657  0.56780149  0.12783672    -0.24400
C2677       C  0.73769410  0.86160687  0.34553487    -0.11200
C2678       C  0.74734021  0.88750418  0.35203325     0.11400
C2679       C  0.73576086  0.91175222  0.36155649    -0.03000
C2680       C  0.71469413  0.90922071  0.36408513    -0.05700
C2681       C  0.70500873  0.88373614  0.35627334    -0.16500
C2682       C  0.71660855  0.85930241  0.34743005     0.02400
C2683       C  0.76906600  0.88958025  0.34464623     0.12400
C2684       C  0.74551261  0.94048331  0.36774767     0.63000
H2685       H  0.70547102  0.92762367  0.37075267     0.12400
C2686       C  0.70668309  0.83101321  0.33996483     0.55100
H2687       H  0.74679267  0.84352009  0.33777833     0.08200
C2688       C  0.78476795  0.87873715  0.36242840    -0.05600
C2689       C  0.80482902  0.88029046  0.35266112    -0.06300
C2690       C  0.80995879  0.89226259  0.32560043    -0.15900
C2691       C  0.79347538  0.90085224  0.30692877    -0.01500
C2692       C  0.77362792  0.90033884  0.31750342    -0.09100
C2693       C  0.78026491  0.86479905  0.39123386     0.65200
H2694       H  0.81644867  0.87038196  0.36585421     0.10700
C2695       C  0.79545614  0.91048268  0.27575727     0.63600
H2696       H  0.76113490  0.90781396  0.30407382     0.08000
F2697       F  0.72078785  0.80924926  0.33435538    -0.19400
F2698       F  0.69461440  0.83450037  0.31576902    -0.15700
F2699       F  0.69495004  0.82235854  0.36278040    -0.19200
F2700       F  0.75340737  0.95144959  0.34265391    -0.22500
F2701       F  0.76087072  0.93686925  0.38776777    -0.24000
F2702       F  0.73177291  0.96062274  0.37857882    -0.18000
F2703       F  0.77814504  0.90469147  0.26006027    -0.20500
F2704       F  0.81094010  0.89610523  0.26204587    -0.21700
F2705       F  0.79838716  0.93988521  0.27471774    -0.18800
F2706       F  0.79773030  0.85717589  0.40615756    -0.18900
F2707       F  0.76933385  0.84009974  0.38682054    -0.22800
F2708       F  0.76915011  0.88370224  0.40828407    -0.24400
C2709       C  0.63731189  0.56444988  0.47148825    -0.11200
C2710       C  0.62334889  0.54525660  0.48253269     0.11400
C2711       C  0.61511613  0.55012015  0.51023188    -0.03000
C2712       C  0.62209082  0.57353809  0.52670426    -0.05700
C2713       C  0.63714617  0.59162268  0.51634907    -0.16500
C2714       C  0.64427323  0.58782784  0.48767310     0.02400
C2715       C  0.61976989  0.51869193  0.46550503     0.12400
C2716       C  0.59935789  0.53034417  0.52234197     0.63000
H2717       H  0.62183951  0.57684578  0.05323114     0.12400
C2718       C  0.65929092  0.60707677  0.47276626     0.55100
H2719       H  0.64332918  0.56057190  0.45009178     0.08200
C2720       C  0.61140235  0.01662707  0.44673612    -0.05600
C2721       C  0.61125772  0.99181395  0.42908289    -0.06300
C2722       C  0.62558429  0.96896566  0.43223906    -0.15900
C2723       C  0.64014482  0.97077512  0.45501595    -0.01500
C2724       C  0.63256053  0.49494410  0.47131845    -0.09100
C2725       C  0.59616576  0.04109930  0.44154103     0.65200
H2726       H  0.60006807  0.99051363  0.41208571     0.10700
C2727       C  0.65596497  0.94718502  0.46100750     0.63600
H2728       H  0.64240044  0.49626269  0.48997891     0.08000
F2729       F  0.65124919  0.61611765  0.44663289    -0.19400
F2730       F  0.67690279  0.59136336  0.46761852    -0.15700
F2731       F  0.66405959  0.63146699  0.48823654    -0.19200
F2732       F  0.60720584  0.50253098  0.52452131    -0.22500
F2733       F  0.59414334  0.01749956  0.51445325    -0.24000
F2734       F  0.59930522  0.53791944  0.05538052    -0.18000
F2735       F  0.65731879  0.45061316  0.48779979    -0.20500
F2736       F  0.66820550  0.94324652  0.43720684    -0.21700
F2737       F  0.64657632  0.92168810  0.46762067    -0.18800
F2738       F  0.58239167  0.03435349  0.42014596    -0.18900
F2739       F  0.59618205  0.55272918  0.40666569    -0.22800
F2740       F  0.58553933  0.04698663  0.46647778    -0.24400
C2741       C  0.62879742  0.73727347  0.51986001    -0.11200
C2742       C  0.62599175  0.73137350  0.49044459     0.11400
C2743       C  0.62664972  0.70225992  0.48079894    -0.03000
C2744       C  0.63102642  0.68025951  0.50088442    -0.05700
C2745       C  0.63570633  0.68639784  0.52972708    -0.16500
C2746       C  0.63366888  0.71521857  0.53976019     0.02400
C2747       C  0.62515299  0.75636273  0.47033389     0.12400
C2748       C  0.62376839  0.69302448  0.44964277     0.63000
H2749       H  0.63184783  0.65808415  0.49351860     0.12400
C2750       C  0.64216483  0.72670800  0.06795973     0.55100
H2751       H  0.62809136  0.75959060  0.52687889     0.08200
C2752       C  0.60685454  0.77046669  0.46215551    -0.05600
C2753       C  0.60751385  0.79386064  0.44276257    -0.06300
C2754       C  0.62588613  0.80371830  0.43185149    -0.15900
C2755       C  0.64419988  0.78935188  0.44004691    -0.01500
C2756       C  0.64345222  0.76596041  0.45929766    -0.09100
C2757       C  0.58683125  0.76059770  0.47383277     0.65200
H2758       H  0.59365395  0.80481222  0.43610173     0.10700
C2759       C  0.66440140  0.79777846  0.42764698     0.63600
H2760       H  0.65723050  0.75473444  0.46588080     0.08000
F2761       F  0.63332327  0.70770480  0.08667874    -0.19400
F2762       F  0.66273634  0.72690750  0.07285993    -0.15700
F2763       F  0.63431596  0.75403735  0.07378914    -0.19200
F2764       F  0.64134955  0.67966111  0.43999756    -0.22500
F2765       F  0.61904507  0.71563602  0.43128763    -0.24000
F2766       F  0.60829655  0.67351847  0.44806301    -0.18000
F2767       F  0.66947362  0.82486854  0.43748679    -0.20500
F2768       F  0.66326681  0.79798307  0.39787440    -0.21700
F2769       F  0.67977299  0.77861695  0.43556999    -0.18800
F2770       F  0.57073709  0.77668195  0.46275806    -0.18900
F2771       F  0.58671695  0.76342834  0.50349933    -0.22800
F2772       F  0.58403817  0.73197116  0.46665947    -0.24400
C2773       C  0.61909389  0.97687316  0.21994634    -0.11200
C2774       C  0.62272592  0.50621278  0.21925372     0.11400
C2775       C  0.62888945  0.01327685  0.25498703    -0.03000
C2776       C  0.63038550  0.99146390  0.27606410    -0.05700
C2777       C  0.62656186  0.96251952  0.26946684    -0.16500
C2778       C  0.62124628  0.95492225  0.24080897     0.02400
C2779       C  0.61891329  0.52860469  0.19669790     0.12400
C2780       C  0.63392860  0.54479182  0.25523984     0.63000
H2781       H  0.63439453  0.99689464  0.29804984     0.12400
C2782       C  0.61764203  0.92381672  0.23239602     0.55100
H2783       H  0.61322228  0.47214843  0.19149853     0.08200
C2784       C  0.63317551  0.53542362  0.17526853    -0.05600
C2785       C  0.62974027  0.56033455  0.15822410    -0.06300
C2786       C  0.61251867  0.57816134  0.16200765    -0.15900
C2787       C  0.59731790  0.56940712  0.18148355    -0.01500
C2788       C  0.60080843  0.54460837  0.19823390    -0.09100
C2789       C  0.65177811  0.01582206  0.17789895     0.65200
H2790       H  0.64108625  0.56708136  0.14309855     0.10700
C2791       C  0.57740596  0.58548715  0.18650746     0.63600
H2792       H  0.58963847  0.53849169  0.21395577     0.08000
F2793       F  0.61095420  0.92136273  0.20419750    -0.19400
F2794       F  0.60327222  0.91212313  0.25015698    -0.15700
F2795       F  0.63553536  0.90815457  0.23499619    -0.19200
F2796       F  0.61686073  0.56230572  0.25262603    -0.22500
F2797       F  0.64865924  0.55471817  0.23702140    -0.24000
F2798       F  0.64166550  0.04617926  0.29052214    -0.18000
F2799       F  0.56169196  0.56691479  0.18153908    -0.20500
F2800       F  0.57443311  0.60912932  0.16894729    -0.21700
F2801       F  0.57659328  0.59476992  0.21483687    -0.18800
F2802       F  0.66383261  0.02632341  0.15622168    -0.18900
F2803       F  0.64654877  0.98802217  0.17058689    -0.22800
F2804       F  0.66299208  0.01510680  0.20311887    -0.24400
C2805       C  0.63107582  0.70847732  0.21778640    -0.11200
C2806       C  0.61765986  0.73203715  0.21577189     0.11400
C2807       C  0.60403751  0.73390008  0.19235002    -0.03000
C2808       C  0.60327713  0.71067629  0.17276590    -0.05700
C2809       C  0.61597638  0.68583035  0.17535838    -0.16500
C2810       C  0.63135332  0.68599713  0.19736031     0.02400
C2811       C  0.61972741  0.75568297  0.23715676     0.12400
C2812       C  0.59072970  0.76068130  0.18771207     0.63000
H2813       H  0.59317345  0.71272877  0.15460132     0.12400
C2814       C  0.64821549  0.66329374  0.20145313     0.55100
H2815       H  0.64191227  0.70813594  0.23540245     0.08200
C2816       C  0.61018615  0.75518591  0.26425626    -0.05600
C2817       C  0.61298490  0.77845244  0.28328241    -0.06300
C2818       C  0.62533154  0.80190704  0.27645625    -0.15900
C2819       C  0.63575193  0.80136624  0.24957457    -0.01500
C2820       C  0.63261747  0.77817195  0.23050107    -0.09100
C2821       C  0.59720442  0.73009099  0.27308659     0.65200
H2822       H  0.60539751  0.77832568  0.30385515     0.10700
C2823       C  0.64995727  0.82489567  0.24039227     0.63600
H2824       H  0.64021023  0.77729937  0.20990267     0.08000
F2825       F  0.66576577  0.67642474  0.21038992    -0.19400
F2826       F  0.65304271  0.64823568  0.17672937    -0.15700
F2827       F  0.64271753  0.64403200  0.22255038    -0.19200
F2828       F  0.60267322  0.78426817  0.18299290    -0.22500
F2829       F  0.57893392  0.76594635  0.21168962    -0.24000
F2830       F  0.57798751  0.75779363  0.16418263    -0.18000
F2831       F  0.66578226  0.82673263  0.25983681    -0.20500
F2832       F  0.63950416  0.85097150  0.23895234    -0.21700
F2833       F  0.65820059  0.81957922  0.21348730    -0.18800
F2834       F  0.58974089  0.73353011  0.30071937    -0.18900
F2835       F  0.60850410  0.70465723  0.27236594    -0.22800
F2836       F  0.58099554  0.72778528  0.25443207    -0.24400
C2837       C  0.51677601  0.87455076  0.31957320    -0.11200
C2838       C  0.50474789  0.88739520  0.34105696     0.11400
C2839       C  0.51404233  0.90002761  0.36543673    -0.03000
C2840       C  0.53529378  0.90059861  0.36675901    -0.05700
C2841       C  0.54730094  0.88759406  0.34534058    -0.16500
C2842       C  0.53798759  0.87421328  0.32134526     0.02400
C2843       C  0.48245482  0.88559809  0.33782981     0.12400
C2844       C  0.50159970  0.91183809  0.39035365     0.63000
H2845       H  0.54275571  0.91035306  0.38506090     0.12400
C2846       C  0.55037677  0.86008845  0.29747621     0.55100
H2847       H  0.50930554  0.86444675  0.30146867     0.08200
C2848       C  0.47108024  0.90500659  0.32023316    -0.05600
C2849       C  0.45048325  0.89962619  0.31525669    -0.06300
C2850       C  0.44129469  0.87506891  0.32640336    -0.15900
C2851       C  0.45238626  0.85678736  0.34548948    -0.01500
C2852       C  0.47290787  0.86212678  0.35046044    -0.09100
C2853       C  0.48091871  0.93029641  0.30548531     0.65200
H2854       H  0.44180236  0.91336530  0.30077270     0.10700
C2855       C  0.44343469  0.83107842  0.36056435     0.63600
H2856       H  0.48174334  0.84735116  0.36383158     0.08000
F2857       F  0.56376799  0.87966715  0.28649506    -0.19400
F2858       F  0.53833407  0.85068660  0.27500600    -0.15700
F2859       F  0.56103293  0.83641108  0.30815785    -0.19200
F2860       F  0.49102957  0.88972608  0.40273652    -0.22500
F2861       F  0.48807522  0.93284012  0.38072989    -0.24000
F2862       F  0.51359810  0.92396057  0.41148236    -0.18000
F2863       F  0.44830029  0.83203570  0.38958779    -0.20500
F2864       F  0.45147130  0.80588619  0.34887941    -0.21700
F2865       F  0.42263096  0.83059926  0.35831153    -0.18800
F2866       F  0.46703653  0.94691852  0.29002311    -0.18900
F2867       F  0.49551385  0.92024714  0.28656527    -0.22800
F2868       F  0.48984310  0.94788970  0.32573341    -0.24400
O2869       O  0.61489404  0.82718823  0.88542951    -0.77800
C2870       C  0.56941874  0.88650598  0.84423800     0.83300
O2871       O  0.63860789  0.84796425  0.78911515    -0.78900
O2872       O  0.61460101  0.94765277  0.81156648    -0.80400
O2873       O  0.63624113  0.92180654  0.90920207    -0.80200
O2874       O  0.64014901  0.84911832  0.90767947    -0.78800
Zn2875     Zn  0.60930497  0.85149608  0.84921554     1.55700
O2876       O  0.61228770  0.94593260  0.88514668    -0.80200
Cd2877     Cd  0.64375705  0.88645654  0.88338602     1.59700
Cd2878     Cd  0.64344701  0.88551451  0.81275417     1.59600
O2879       O  0.67423637  0.88867598  0.87243192    -0.80200
O2880       O  0.62600135  0.88594889  0.84813464    -1.90700
Cd2881     Cd  0.60832373  0.92191460  0.84747827     1.59900
O2882       O  0.67400084  0.88607410  0.82437580    -0.80200
O2883       O  0.57800566  0.91088885  0.84468899    -0.78800
C2884       C  0.62692607  0.82680278  0.79279616     0.83700
C2885       C  0.62798052  0.82824420  0.90572087     0.83400
O2886       O  0.57948084  0.86279153  0.84641974    -0.77800
C2887       C  0.62377247  0.94306605  0.90724530     0.84200
O2888       O  0.61540236  0.82583041  0.81469779    -0.77900
C2889       C  0.68347402  0.88751423  0.84837824     0.84300
C2890       C  0.62552430  0.94375012  0.78921195     0.84600
O2891       O  0.63684076  0.92124064  0.78621231    -0.80300
C2892       C  0.61330022  0.65798230  0.65245174     0.87200
C2893       C  0.61428585  0.62948719  0.66901117    -0.53000
C2894       C  0.61287093  0.60537282  0.65240827     0.10100
C2895       C  0.61039341  0.61183650  0.61969470     0.21100
C2896       C  0.62921566  0.65554916  0.62882338    -0.53800
C2897       C  0.62792244  0.63175328  0.61170257     0.10200
C2898       C  0.59301361  0.65587109  0.63559999    -0.53300
C2899       C  0.59160443  0.63199915  0.61813523     0.10800
H2900       H  0.61572357  0.62845038  0.69233349     0.15300
H2901       H  0.60939553  0.59224756  0.60596296     0.01000
H2902       H  0.64058926  0.67175513  0.62571408     0.15600
H2903       H  0.58006543  0.67018612  0.63823444     0.15400
C2904       C  0.67451827  0.63358217  0.56370253     0.87200
C2905       C  0.66585851  0.66218016  0.55158807    -0.53000
C2906       C  0.64546520  0.66294163  0.54722333     0.10100
C2907       C  0.63527159  0.63447468  0.55516157     0.21100
C2908       C  0.66214554  0.62729625  0.59083338    -0.53800
C2909       C  0.64168458  0.62832082  0.58673324     0.10200
C2910       C  0.66700135  0.61030546  0.54256128    -0.53300
C2911       C  0.64673316  0.61146623  0.53721823     0.10800
H2912       H  0.67539989  0.67978294  0.54515408     0.15300
H2913       H  0.61868383  0.63501726  0.55150676     0.01000
H2914       H  0.66877788  0.62351697  0.61189246     0.15600
H2915       H  0.67651790  0.59364476  0.53285468     0.15400
O2916       O  0.83846754  0.61039447  0.58789722    -0.77800
C2917       C  0.88577575  0.57333082  0.53708814     0.83300
O2918       O  0.89521582  0.59935065  0.65546336    -0.78900
O2919       O  0.93182653  0.63166267  0.56848745    -0.80400
O2920       O  0.87244270  0.69391373  0.55602572    -0.80200
O2921       O  0.83649362  0.65813852  0.58950188    -0.78800
Zn2922     Zn  0.86790700  0.59897178  0.59269202     1.55700
O2923       O  0.89560182  0.66886773  0.53162791    -0.80200
Cd2924     Cd  0.86677679  0.66903210  0.59220335     1.59700
Cd2925     Cd  0.90218377  0.63394727  0.62846406     1.59600
O2926       O  0.87170012  0.69459864  0.62865938    -0.80200
O2927       O  0.88453561  0.63324854  0.59278720    -1.90700
Cd2928     Cd  0.90151013  0.63245453  0.55708701     1.59900
O2929       O  0.89701135  0.67219546  0.65227949    -0.80200
O2930       O  0.89656874  0.59531412  0.53262647    -0.78800
C2931       C  0.88231618  0.57935634  0.65299949     0.83700
C2932       C  0.82800809  0.63375329  0.58716948     0.83400
O2933       O  0.87458409  0.57181470  0.55928365    -0.77800
C2934       C  0.88389931  0.69096475  0.53413942     0.84200
O2935       O  0.87141411  0.57720503  0.63039018    -0.77900
C2936       C  0.88425983  0.69317795  0.64962341     0.84300
C2937       C  0.94156638  0.63067048  0.59227123     0.84600
O2938       O  0.93273671  0.63079687  0.61670903    -0.80300
C2939       C  0.92369733  0.88445981  0.86397455     0.87200
C2940       C  0.91976277  0.85728880  0.88158528    -0.53000
C2941       C  0.90079663  0.85564336  0.89280933     0.10100
C2942       C  0.88703464  0.88198503  0.88458466     0.21100
C2943       C  0.90698356  0.88503089  0.84081566    -0.53800
C2944       C  0.88770775  0.88316761  0.85094969     0.10200
C2945       C  0.91757163  0.91022651  0.88313258    -0.53300
C2946       C  0.89879641  0.90881398  0.89482271     0.10800
H2947       H  0.93140945  0.84083105  0.88539400     0.15300
H2948       H  0.87178197  0.88159816  0.89391738     0.01000
H2949       H  0.91021737  0.88882784  0.81840812     0.15600
H2950       H  0.92730837  0.92831499  0.88723312     0.15400
C2951       C  0.83471927  0.89386483  0.81512109     0.87200
C2952       C  0.83706549  0.86655849  0.79641290    -0.53000
C2953       C  0.85603900  0.86085909  0.78624865     0.10100
C2954       C  0.87157697  0.88290401  0.79721221     0.21100
C2955       C  0.85038847  0.88937515  0.83973511    -0.53800
C2956       C  0.86977828  0.88386172  0.83073461     0.10200
C2957       C  0.84430630  0.91836728  0.79788879    -0.53300
C2958       C  0.86326070  0.91261474  0.78756781     0.10800
H2959       H  0.82447755  0.85268844  0.79196219     0.15300
H2960       H  0.88686960  0.87809013  0.78925786     0.01000
H2961       H  0.84667683  0.89272895  0.86220931     0.15600
H2962       H  0.83775762  0.93968876  0.79601741     0.15400
O2963       O  0.43471607  0.63414820  0.57954425    -0.77800
C2964       C  0.38687193  0.67149944  0.52206111     0.83300
O2965       O  0.37567047  0.65262073  0.63806092    -0.78900
O2966       O  0.33902168  0.61592204  0.55607363    -0.80400
O2967       O  0.39763792  0.55264395  0.54298196    -0.80200
O2968       O  0.43479366  0.58608037  0.57876569    -0.78800
Zn2969     Zn  0.40517224  0.64716641  0.57812418     1.55700
O2970       O  0.37458132  0.57854430  0.51863266    -0.80200
Cd2971     Cd  0.40412704  0.57734422  0.57912522     1.59700
Cd2972     Cd  0.37025294  0.61516071  0.61488772     1.59600
O2973       O  0.39903134  0.55325008  0.61615710    -0.80200
O2974       O  0.38739765  0.61403224  0.57921454    -1.90700
Cd2975     Cd  0.36928117  0.61475961  0.54438624     1.59900
O2976       O  0.37726306  0.58015409  0.64181338    -0.80200
O2977       O  0.37405353  0.65145326  0.52001963    -0.78800
C2978       C  0.38820727  0.67269109  0.63418877     0.83700
C2979       C  0.44414322  0.60981162  0.57953903     0.83400
O2980       O  0.39983139  0.67190526  0.54248221    -0.77800
C2981       C  0.38606777  0.55616718  0.52116846     0.84200
O2982       O  0.40008716  0.67290416  0.61270731    -0.77900
C2983       C  0.38867773  0.55777127  0.63890563     0.84300
C2984       C  0.32997689  0.61598986  0.58024481     0.84600
O2985       O  0.33953788  0.61528585  0.60422093    -0.80300
C2986       C  0.39923538  0.84055145  0.77436975     0.87200
C2987       C  0.41954018  0.84294885  0.79007966    -0.53000
C2988       C  0.42103830  0.86623007  0.80798348     0.10100
C2989       C  0.40161267  0.88534976  0.80906953     0.21100
C2990       C  0.38343655  0.84139460  0.79863572    -0.53800
C2991       C  0.38476991  0.86419446  0.81717966     0.10200
C2992       C  0.39548657  0.86979329  0.75951809    -0.53300
C2993       C  0.39712928  0.89326505  0.77712292     0.10800
H2994       H  0.43221799  0.82830900  0.78582710     0.15300
H2995       H  0.40274649  0.90437202  0.82354991     0.01000
H2996       H  0.37109685  0.82663910  0.80023879     0.15600
H2997       H  0.39203404  0.87192843  0.73673156     0.15400
C2998       C  0.33552750  0.86192701  0.86048948     0.87200
C2999       C  0.34136075  0.88522491  0.88238585    -0.53000
C3000       C  0.36141659  0.88561397  0.88918737     0.10100
C3001       C  0.37428102  0.86274796  0.87291104     0.21100
C3002       C  0.34943843  0.86717958  0.83440023    -0.53800
C3003       C  0.36962976  0.86795301  0.84067226     0.10200
C3004       C  0.34422384  0.83332612  0.87257724    -0.53300
C3005       C  0.36432053  0.83353587  0.87956493     0.10800
H3006       H  0.33044206  0.90034255  0.89170661     0.15300
H3007       H  0.39053867  0.86330239  0.87845122     0.01000
H3008       H  0.34437515  0.86644625  0.81218944     0.15600
H3009       H  0.33515404  0.81448160  0.87591466     0.15400
O3010       O  0.11742129  0.93697542  0.78673174    -0.77800
C3011       C  0.07096084  0.87845236  0.81584836     0.83300
O3012       O  0.13716890  0.90791402  0.88378532    -0.78900
O3013       O  0.11435286  0.81326065  0.84908216    -0.80400
O3014       O  0.14115794  0.84100141  0.75724174    -0.80200
O3015       O  0.14165744  0.91435129  0.76202229    -0.78800
Zn3016     Zn  0.11062475  0.91136175  0.82051859     1.55700
O3017       O  0.11549089  0.81849135  0.77735975    -0.80200
Cd3018     Cd  0.14602492  0.87604613  0.78518982     1.59700
Cd3019     Cd  0.14290629  0.87264713  0.85657173     1.59600
O3020       O  0.17584454  0.87340918  0.79962273    -0.80200
O3021       O  0.12734464  0.87599826  0.81929801    -1.90700
Cd3022     Cd  0.11004852  0.84149600  0.81498826     1.59900
O3023       O  0.17353828  0.87174207  0.84770231    -0.80200
O3024       O  0.08025445  0.85426079  0.81399034    -0.78800
C3025       C  0.12640788  0.93083649  0.88016005     0.83700
C3026       C  0.12961164  0.93600796  0.76559584     0.83400
O3027       O  0.08065864  0.90188209  0.81837015    -0.77800
C3028       C  0.12830412  0.82084156  0.75722900     0.84200
O3029       O  0.11580742  0.93454362  0.85735650    -0.77900
C3030       C  0.18391691  0.87209300  0.82464896     0.84300
C3031       C  0.12506790  0.81337042  0.87195021     0.84600
O3032       O  0.13631840  0.83454662  0.87822831    -0.80300
C3033       C  0.11325842  0.64829618  0.51149487     0.87200
C3034       C  0.09289314  0.64921354  0.52735874    -0.53000
C3035       C  0.08998487  0.62714513  0.54628620     0.10100
C3036       C  0.10876953  0.60638076  0.54895180     0.21100
C3037       C  0.12853379  0.64839399  0.53646471    -0.53800
C3038       C  0.12673688  0.62648181  0.55592496     0.10200
C3039       C  0.11468762  0.61798304  0.49846011    -0.53300
C3040       C  0.11272064  0.59599233  0.51757939     0.10800
H3041       H  0.08120397  0.66560139  0.52385249     0.15300
H3042       H  0.10711662  0.58827609  0.56426820     0.01000
H3043       H  0.14021401  0.66423228  0.53827233     0.15600
H3044       H  0.11771982  0.61416718  0.47575627     0.15400
C3045       C  0.17673137  0.62784536  0.59942672     0.87200
C3046       C  0.17061704  0.60512893  0.62151585    -0.53000
C3047       C  0.15065636  0.60549730  0.62835523     0.10100
C3048       C  0.13805804  0.62859615  0.61172880     0.21100
C3049       C  0.16248782  0.62225415  0.57323683    -0.53800
C3050       C  0.14222022  0.62268847  0.57950000     0.10200
C3051       C  0.16856370  0.65693652  0.61088647    -0.53300
C3052       C  0.14851449  0.65761143  0.61773285     0.10800
H3053       H  0.18135252  0.58978867  0.63102473     0.15300
H3054       H  0.12199743  0.62893547  0.61754747     0.01000
H3055       H  0.16724195  0.62105368  0.55101352     0.15600
H3056       H  0.17819730  0.67529122  0.61438761     0.15400
C3057       C  0.11288584  0.77047606  0.69581192    -0.11200
C3058       C  0.13057919  0.75360585  0.69251086     0.11400
C3059       C  0.14785583  0.76002121  0.70933449    -0.03000
C3060       C  0.14659490  0.78260513  0.72972228    -0.05700
C3061       C  0.12869213  0.79879396  0.73384400    -0.16500
C3062       C  0.11159570  0.79302026  0.71632609     0.02400
C3063       C  0.13093713  0.72958290  0.67097143     0.12400
C3064       C  0.16753363  0.74293100  0.70579213     0.63000
H3065       H  0.15954048  0.78748608  0.74308179     0.12400
C3066       C  0.09226346  0.81105534  0.71878876     0.55100
H3067       H  0.10000611  0.76561565  0.68232009     0.08200
C3068       C  0.12420858  0.70154424  0.67753097    -0.05600
C3069       C  0.12826127  0.67881787  0.65789751    -0.06300
C3070       C  0.13889441  0.68335365  0.63224272    -0.15900
C3071       C  0.14288053  0.71224880  0.62400642    -0.01500
C3072       C  0.13924513  0.73472765  0.64385647    -0.09100
C3073       C  0.11326643  0.69563319  0.70545822     0.65200
H3074       H  0.12420408  0.65702168  0.66334864     0.10700
C3075       C  0.15072264  0.72078042  0.59466815     0.63600
H3076       H  0.14338776  0.75654698  0.63837817     0.08000
F3077       F  0.08330520  0.80622003  0.74510635    -0.19400
F3078       F  0.07850591  0.80435361  0.69735282    -0.15700
F3079       F  0.09655786  0.84003532  0.71638905    -0.19200
F3080       F  0.17489293  0.74673508  0.67828798    -0.22500
F3081       F  0.16437524  0.71388794  0.71024599    -0.24000
F3082       F  0.18214520  0.75168023  0.72517244    -0.18000
F3083       F  0.13851504  0.74266977  0.58342530    -0.20500
F3084       F  0.15074272  0.69831524  0.57513430    -0.21700
F3085       F  0.17014655  0.73075150  0.59751910    -0.18800
F3086       F  0.10881103  0.66672804  0.70829372    -0.18900
F3087       F  0.09533346  0.71145546  0.70603847    -0.22800
F3088       F  0.12504690  0.70343308  0.72877201    -0.24400
C3089       C  0.11624883  0.00365218  0.72076174    -0.11200
C3090       C  0.13351673  0.50725700  0.70013551     0.11400
C3091       C  0.15084896  0.98826883  0.71086787    -0.03000
C3092       C  0.14844523  0.96504277  0.73000680    -0.05700
C3093       C  0.13031060  0.96085792  0.74498826    -0.16500
C3094       C  0.11373155  0.98043506  0.73992921     0.02400
C3095       C  0.13550314  0.53356843  0.68184142     0.12400
C3096       C  0.16880130  0.48896605  0.68609865     0.63000
H3097       H  0.16105768  0.95030494  0.73397444     0.12400
C3098       C  0.09328760  0.97697523  0.75407277     0.55100
H3099       H  0.10404568  0.01919061  0.71715427     0.08200
C3100       C  0.12741548  0.53596186  0.65354665    -0.05600
C3101       C  0.13142156  0.56093518  0.63720703    -0.06300
C3102       C  0.14250579  0.58379459  0.64874753    -0.15900
C3103       C  0.14865492  0.58243776  0.67810952    -0.01500
C3104       C  0.14553031  0.55705167  0.69379649    -0.09100
C3105       C  0.11768335  0.00876210  0.64583532     0.65200
H3106       H  0.12660710  0.56231585  0.61489587     0.10700
C3107       C  0.15856100  0.60699014  0.69398747     0.63600
H3108       H  0.15097635  0.55551601  0.71584133     0.08000
F3109       F  0.07883232  0.99585743  0.74274638    -0.19400
F3110       F  0.09478274  0.98255631  0.78328801    -0.15700
F3111       F  0.08659209  0.94922124  0.74970251    -0.19200
F3112       F  0.17874059  0.51362371  0.69425146    -0.22500
F3113       F  0.16448038  0.49039592  0.65696104    -0.24000
F3114       F  0.18175116  0.46551740  0.69057595    -0.18000
F3115       F  0.14961928  0.61080385  0.72065095    -0.20500
F3116       F  0.15650784  0.63278923  0.67950047    -0.21700
F3117       F  0.17883406  0.60039896  0.69800662    -0.18800
F3118       F  0.11248461  0.01328958  0.61724375    -0.18900
F3119       F  0.10016307  0.00431755  0.66105399    -0.22800
F3120       F  0.12981840  0.98414060  0.64735773    -0.24400
C3121       C  0.13622346  0.70531063  0.46040316    -0.11200
C3122       C  0.12027039  0.71811198  0.95255749     0.11400
C3123       C  0.10147542  0.70598338  0.95886633    -0.03000
C3124       C  0.09874832  0.68429125  0.47495999    -0.05700
C3125       C  0.11610889  0.67177939  0.48829212    -0.16500
C3126       C  0.13535063  0.68051121  0.47784925     0.02400
C3127       C  0.12212603  0.74275320  0.93230921     0.12400
C3128       C  0.08218603  0.71661020  0.94402563     0.63000
H3129       H  0.08419003  0.67519865  0.47887850     0.12400
C3130       C  0.15539711  0.66438919  0.48259577     0.55100
H3131       H  0.15078381  0.71327248  0.45394759     0.08200
C3132       C  0.12352717  0.77154676  0.94219604    -0.05600
C3133       C  0.12455565  0.79393061  0.92179206    -0.06300
C3134       C  0.12428318  0.78834903  0.89198422    -0.15900
C3135       C  0.12367341  0.75923838  0.88217505    -0.01500
C3136       C  0.12267954  0.73694780  0.90267861    -0.09100
C3137       C  0.12065741  0.77955949  0.47208955     0.65200
H3138       H  0.12535348  0.81612188  0.92901917     0.10700
C3139       C  0.12459013  0.75144243  0.85034632     0.63600
H3140       H  0.12205917  0.71463884  0.89575315     0.08000
F3141       F  0.16697624  0.67937671  0.50220045    -0.19400
F3142       F  0.16575703  0.66266007  0.45679133    -0.15700
F3143       F  0.15340043  0.63641980  0.49201893    -0.19200
F3144       F  0.08350719  0.71159761  0.91471538    -0.22500
F3145       F  0.07930134  0.74587362  0.94877651    -0.24000
F3146       F  0.06535448  0.70268692  0.95406396    -0.18000
F3147       F  0.12700154  0.72197048  0.84612132    -0.20500
F3148       F  0.14077271  0.76471698  0.83764169    -0.21700
F3149       F  0.10688575  0.76019186  0.83671910    -0.18800
F3150       F  0.12072352  0.80896852  0.47744432    -0.18900
F3151       F  0.13739607  0.76711405  0.48544024    -0.22800
F3152       F  0.10345594  0.76861860  0.48422560    -0.24400
C3153       C  0.13145548  0.50354384  0.92108255    -0.11200
C3154       C  0.12790938  0.49428285  0.94936489     0.11400
C3155       C  0.12466212  0.96477122  0.95512758    -0.03000
C3156       C  0.12518796  0.94470588  0.93213100    -0.05700
C3157       C  0.12621827  0.95352490  0.90318088    -0.16500
C3158       C  0.12756225  0.98347718  0.89705438     0.02400
C3159       C  0.12532494  0.51686657  0.97228092     0.12400
C3160       C  0.12304108  0.95419316  0.98595855     0.63000
H3161       H  0.12433538  0.92183488  0.93658443     0.12400
C3162       C  0.13003917  0.99445287  0.86647897     0.55100
H3163       H  0.13331168  0.52642455  0.91751193     0.08200
C3164       C  0.14179749  0.53087316  0.98558742    -0.05600
C3165       C  0.13787027  0.55501175  0.00364148    -0.06300
C3166       C  0.11634793  0.56563498  0.50757987    -0.15900
C3167       C  0.10044413  0.54781722  0.49838154    -0.01500
C3168       C  0.10498920  0.52311306  0.48160290    -0.09100
C3169       C  0.16341572  0.52089085  0.98008995     0.65200
H3170       H  0.15027566  0.56684992  0.01283555     0.10700
C3171       C  0.07865526  0.55612290  0.50421432     0.63600
H3172       H  0.09289511  0.51005520  0.47330080     0.08000
F3173       F  0.15191617  0.47995093  0.85525401    -0.19400
F3174       F  0.13440757  0.02353660  0.86595847    -0.15700
F3175       F  0.11238581  0.99069285  0.85103737    -0.19200
F3176       F  0.09947819  0.96234226  0.49454865    -0.22500
F3177       F  0.13402238  0.46209320  0.00404823    -0.24000
F3178       F  0.12377608  0.92435365  0.98750284    -0.18000
F3179       F  0.06555370  0.53504583  0.49510308    -0.20500
F3180       F  0.07382543  0.58128053  0.48959699    -0.21700
F3181       F  0.07591968  0.56023719  0.53344865    -0.18800
F3182       F  0.17711673  0.53732278  0.99521488    -0.18900
F3183       F  0.16777355  0.52304670  0.95110390    -0.22800
F3184       F  0.16605515  0.49248820  0.98856800    -0.24400
C3185       C  0.27723704  0.85084028  0.86520870    -0.11200
C3186       C  0.27052103  0.86253734  0.83910800     0.11400
C3187       C  0.28456771  0.87488624  0.82034835    -0.03000
C3188       C  0.30509944  0.87476522  0.82841031    -0.05700
C3189       C  0.31243175  0.86199904  0.85428604    -0.16500
C3190       C  0.29765672  0.85103280  0.87380931     0.02400
C3191       C  0.24835944  0.86448422  0.83379564     0.12400
C3192       C  0.27784582  0.88823529  0.79186162     0.63000
H3193       H  0.31526566  0.88603333  0.81463895     0.12400
C3194       C  0.30190081  0.83879954  0.90372975     0.55100
H3195       H  0.26604927  0.84211875  0.87954702     0.08200
C3196       C  0.23705488  0.84059487  0.82432226    -0.05600
C3197       C  0.21600688  0.84418503  0.82080703    -0.06300
C3198       C  0.20610994  0.87048500  0.82716512    -0.15900
C3199       C  0.21735996  0.89426401  0.83677230    -0.01500
C3200       C  0.23837678  0.89076484  0.84011934    -0.09100
C3201       C  0.24709421  0.81139878  0.81845204     0.65200
H3202       H  0.20699118  0.82625277  0.81373450     0.10700
C3203       C  0.20716597  0.92325405  0.84302730     0.63600
H3204       H  0.24725776  0.90853221  0.84794171     0.08000
F3205       F  0.30303988  0.80899229  0.90217143    -0.19400
F3206       F  0.28643297  0.84652390  0.92236932    -0.15700
F3207       F  0.31928144  0.84886429  0.91593852    -0.19200
F3208       F  0.26539568  0.91203298  0.79682152    -0.22500
F3209       F  0.26743172  0.86825597  0.77575021    -0.24000
F3210       F  0.29404517  0.89709954  0.77566588    -0.18000
F3211       F  0.19372485  0.92056776  0.86548353    -0.20500
F3212       F  0.19682641  0.93281846  0.81876163    -0.21700
F3213       F  0.22098172  0.94396492  0.85063098    -0.18800
F3214       F  0.23344484  0.79157576  0.80820176    -0.18900
F3215       F  0.25554025  0.80051004  0.84357618    -0.22800
F3216       F  0.26206598  0.81415779  0.79810910    -0.24400
C3217       C  0.23510082  0.63275743  0.61145866    -0.11200
C3218       C  0.24266880  0.62540988  0.58444569     0.11400
C3219       C  0.22907485  0.61865093  0.56205146    -0.03000
C3220       C  0.20812156  0.61977643  0.56762453    -0.05700
C3221       C  0.20001600  0.62759685  0.59487155    -0.16500
C3222       C  0.21431287  0.63409934  0.61744386     0.02400
C3223       C  0.26505707  0.62351234  0.58122246     0.12400
C3224       C  0.23675365  0.60996742  0.53240031     0.63000
H3225       H  0.19827690  0.61354718  0.55039677     0.12400
C3226       C  0.20984622  0.64267508  0.64855967     0.55100
H3227       H  0.24585592  0.63733919  0.62851766     0.08200
C3228       C  0.27699007  0.64843445  0.57880346    -0.05600
C3229       C  0.29819054  0.64501944  0.57830129    -0.06300
C3230       C  0.30765120  0.61771272  0.58038991    -0.15900
C3231       C  0.29577864  0.59283734  0.58240600    -0.01500
C3232       C  0.27459471  0.59619032  0.58314613    -0.09100
C3233       C  0.26739480  0.67848397  0.57700344     0.65200
H3234       H  0.30762103  0.66373423  0.57666065     0.10700
C3235       C  0.30557796  0.56296860  0.58354103     0.63600
H3236       H  0.26525455  0.57747451  0.58555696     0.08000
F3237       F  0.21993173  0.62369744  0.66691738    -0.19400
F3238       F  0.18995385  0.64272737  0.65611013    -0.15700
F3239       F  0.21690375  0.67015561  0.65347357    -0.19200
F3240       F  0.24762699  0.58422502  0.53422322    -0.22500
F3241       F  0.24910974  0.63104577  0.52176732    -0.24000
F3242       F  0.22114485  0.60628871  0.51286748    -0.18000
F3243       F  0.31794782  0.56069680  0.60756886    -0.20500
F3244       F  0.31702273  0.55836315  0.55905299    -0.21700
F3245       F  0.29139868  0.54152836  0.58495261    -0.18800
F3246       F  0.28164832  0.69941244  0.57266721    -0.18900
F3247       F  0.25738545  0.68499534  0.60231840    -0.22800
F3248       F  0.25379395  0.67981910  0.55432908    -0.24400
C3249       C  0.37591415  0.75760848  0.90770562    -0.11200
C3250       C  0.38299368  0.76396040  0.93546292     0.11400
C3251       C  0.38770098  0.79288086  0.94238530    -0.03000
C3252       C  0.38359759  0.81476964  0.92188195    -0.05700
C3253       C  0.37427070  0.80879108  0.89532135    -0.16500
C3254       C  0.37160210  0.77941293  0.88737002     0.02400
C3255       C  0.38446792  0.74001952  0.95704376     0.12400
C3256       C  0.39314345  0.80134870  0.47438155     0.63000
H3257       H  0.38643782  0.83704568  0.92729436     0.12400
C3258       C  0.36437908  0.76963701  0.85791524     0.55100
H3259       H  0.37318006  0.73528655  0.90209803     0.08200
C3260       C  0.36398475  0.72955707  0.47371877    -0.05600
C3261       C  0.36664686  0.70695105  0.49369527    -0.06300
C3262       C  0.38584258  0.69544550  0.50071793    -0.15900
C3263       C  0.40307428  0.70654968  0.48690853    -0.01500
C3264       C  0.40342398  0.72725529  0.96321919    -0.09100
C3265       C  0.34286586  0.74155287  0.46748156     0.65200
H3266       H  0.35363635  0.69816879  0.50430646     0.10700
C3267       C  0.42417581  0.69475559  0.49336241     0.63600
H3268       H  0.41641782  0.73515820  0.95189048     0.08000
F3269       F  0.34551871  0.75772979  0.86041672    -0.19400
F3270       F  0.37767956  0.74884019  0.84723445    -0.15700
F3271       F  0.36328056  0.79174435  0.83811394    -0.19200
F3272       F  0.41184685  0.78806501  0.47816238    -0.22500
F3273       F  0.38034355  0.79250007  0.49590473    -0.24000
F3274       F  0.39549904  0.83083690  0.47724033    -0.18000
F3275       F  0.44100574  0.70288306  0.97137903    -0.20500
F3276       F  0.42473324  0.66505559  0.49010749    -0.21700
F3277       F  0.42959155  0.70178589  0.52128507    -0.18800
F3278       F  0.32859633  0.72959236  0.48526865    -0.18900
F3279       F  0.34076527  0.73778316  0.93694997    -0.22800
F3280       F  0.34226569  0.77111287  0.47172253    -0.24400
C3281       C  0.39679114  0.98993709  0.47333981    -0.11200
C3282       C  0.38119909  0.98301606  0.96118775     0.11400
C3283       C  0.36757930  0.50578625  0.96295769    -0.03000
C3284       C  0.36684820  0.52936741  0.48404958    -0.05700
C3285       C  0.38531511  0.53328149  0.49849568    -0.16500
C3286       C  0.40218621  0.51523312  0.49110231     0.02400
C3287       C  0.37878571  0.95660771  0.94311037     0.12400
C3288       C  0.34509439  0.00012660  0.94943317     0.63000
H3289       H  0.35413246  0.54337308  0.48951383     0.12400
C3290       C  0.42312503  0.51988252  0.50355287     0.55100
H3291       H  0.41140520  0.97082141  0.97298553     0.08200
C3292       C  0.38632183  0.95401840  0.91466164    -0.05600
C3293       C  0.38149098  0.92934129  0.89823577    -0.06300
C3294       C  0.36963508  0.90736444  0.90957399    -0.15900
C3295       C  0.36363439  0.90901456  0.93887466    -0.01500
C3296       C  0.36813566  0.93378902  0.95493735    -0.09100
C3297       C  0.39890729  0.97753805  0.90157244     0.65200
H3298       H  0.38614676  0.92763855  0.87594520     0.10700
C3299       C  0.35201507  0.88576982  0.95404160     0.63600
H3300       H  0.36086529  0.93629064  0.47653532     0.08000
F3301       F  0.43772467  0.50362541  0.48922251    -0.19400
F3302       F  0.42308775  0.01243275  0.53153451    -0.15700
F3303       F  0.42805416  0.54862286  0.50099979    -0.19200
F3304       F  0.33557025  0.97561071  0.95866197    -0.22500
F3305       F  0.34837582  0.99806774  0.92010161    -0.24000
F3306       F  0.33601066  0.52912359  0.94981874    -0.18000
F3307       F  0.35985157  0.88137598  0.98143619    -0.20500
F3308       F  0.35315859  0.85966071  0.93983750    -0.21700
F3309       F  0.33199711  0.89450262  0.95631024    -0.18800
F3310       F  0.40412857  0.97127040  0.87335943    -0.18900
F3311       F  0.41651084  0.98047827  0.91732590    -0.22800
F3312       F  0.39159855  0.50308386  0.90096732    -0.24400
C3313       C  0.37628263  0.96387335  0.74570542    -0.11200
C3314       C  0.39254806  0.97214117  0.72852496     0.11400
C3315       C  0.41136094  0.95727146  0.73143207    -0.03000
C3316       C  0.41253605  0.93227334  0.74868292    -0.05700
C3317       C  0.39595695  0.92293390  0.76462149    -0.16500
C3318       C  0.37776450  0.93956239  0.76402281     0.02400
C3319       C  0.38918291  0.99485469  0.70602486     0.12400
C3320       C  0.43007700  0.96791153  0.71638839     0.63000
H3321       H  0.42626407  0.91919123  0.74899014     0.12400
C3322       C  0.35980953  0.93082510  0.78177394     0.55100
H3323       H  0.36215180  0.97592687  0.74373326     0.08200
C3324       C  0.38327016  0.98759788  0.67753795    -0.05600
C3325       C  0.38497717  0.50743915  0.65555308    -0.06300
C3326       C  0.38988409  0.53597228  0.66234099    -0.15900
C3327       C  0.39655802  0.54266621  0.69065325    -0.01500
C3328       C  0.39818117  0.52032639  0.71122871    -0.09100
C3329       C  0.37761339  0.95694305  0.66969057     0.65200
H3330       H  0.37988226  0.50276736  0.63385190     0.10700
C3331       C  0.40252660  0.57304897  0.69882062     0.63600
H3332       H  0.40337915  0.52487630  0.73290252     0.08000
F3333       F  0.35347386  0.90396992  0.77295290    -0.19400
F3334       F  0.34374104  0.95024243  0.77893830    -0.15700
F3335       F  0.36526438  0.92970711  0.81056256    -0.19200
F3336       F  0.43424317  0.99538621  0.72613690    -0.22500
F3337       F  0.42708713  0.96877581  0.68690668    -0.24000
F3338       F  0.44679604  0.95029104  0.72191019    -0.18000
F3339       F  0.38582284  0.59140772  0.69728502    -0.20500
F3340       F  0.41717148  0.58249783  0.68016439    -0.21700
F3341       F  0.41023583  0.57437796  0.72657892    -0.18800
F3342       F  0.37230815  0.95447335  0.64090748    -0.18900
F3343       F  0.36130677  0.94886969  0.68602850    -0.22800
F3344       F  0.39362878  0.93803722  0.67496429    -0.24400
C3345       C  0.40487946  0.79014542  0.70749731    -0.11200
C3346       C  0.39329440  0.76673650  0.71564843     0.11400
C3347       C  0.38541031  0.76573941  0.74376790    -0.03000
C3348       C  0.38848634  0.78930440  0.76232792    -0.05700
C3349       C  0.39878893  0.81429934  0.75371545    -0.16500
C3350       C  0.40859646  0.81342619  0.72620944     0.02400
C3351       C  0.39111323  0.74256447  0.69484868     0.12400
C3352       C  0.37390936  0.73974714  0.75421780     0.63000
H3353       H  0.38333626  0.78742526  0.78417150     0.12400
C3354       C  0.42299422  0.83580513  0.71461360     0.55100
H3355       H  0.41151990  0.78984051  0.68618283     0.08200
C3356       C  0.37678498  0.74356152  0.67204997    -0.05600
C3357       C  0.37606719  0.72009546  0.65270780    -0.06300
C3358       C  0.38931134  0.69622420  0.65551273    -0.15900
C3359       C  0.40363154  0.69529568  0.67818954    -0.01500
C3360       C  0.40439065  0.71869520  0.69747310    -0.09100
C3361       C  0.36245834  0.76933933  0.66816763     0.65200
H3362       H  0.36530631  0.72029688  0.63504465     0.10700
C3363       C  0.41792083  0.66951443  0.68188529     0.63600
H3364       H  0.41544787  0.71865275  0.71475731     0.08000
F3365       F  0.41296399  0.85274713  0.69438530    -0.19400
F3366       F  0.43915643  0.82194717  0.70125135    -0.15700
F3367       F  0.43107468  0.85340394  0.73545019    -0.19200
F3368       F  0.38668173  0.71577224  0.75525766    -0.22500
F3369       F  0.35803886  0.73420986  0.73569950    -0.24000
F3370       F  0.36602089  0.74412003  0.78148536    -0.18000
F3371       F  0.43026925  0.67235356  0.70584022    -0.20500
F3372       F  0.43004550  0.66657623  0.65785199    -0.21700
F3373       F  0.40689973  0.64476969  0.68516252    -0.18800
F3374       F  0.34942574  0.76560425  0.64509841    -0.18900
F3375       F  0.37332122  0.79393612  0.66319316    -0.22800
F3376       F  0.35099124  0.77336297  0.69269417    -0.24400
C3377       C  0.98098656  0.89801170  0.85535105    -0.11200
C3378       C  0.98440907  0.88830097  0.82722297     0.11400
C3379       C  0.96848720  0.87567968  0.81161230    -0.03000
C3380       C  0.94944731  0.87418256  0.82459622    -0.05700
C3381       C  0.94553468  0.88490673  0.85264518    -0.16500
C3382       C  0.96243576  0.89441158  0.86924132     0.02400
C3383       C  0.00580514  0.88576439  0.81836180     0.12400
C3384       C  0.97068415  0.86307985  0.78151072     0.63000
H3385       H  0.93773113  0.86348863  0.81260547     0.12400
C3386       C  0.96289720  0.89908890  0.90175533     0.55100
H3387       H  0.99368344  0.90610311  0.86759013     0.08200
C3388       C  0.01748331  0.90972172  0.81075550    -0.05600
C3389       C  0.03859204  0.90616894  0.80964226    -0.06300
C3390       C  0.04837762  0.87943503  0.81532754    -0.15900
C3391       C  0.03632525  0.85493707  0.82116726    -0.01500
C3392       C  0.01526397  0.85881933  0.82259334    -0.09100
C3393       C  0.00857082  0.93934939  0.80372656     0.65200
H3394       H  0.04752197  0.92474984  0.80442472     0.10700
C3395       C  0.04521090  0.82491583  0.82713145     0.63600
H3396       H  0.00585098  0.84093782  0.82837056     0.08000
F3397       F  0.96346798  0.92834532  0.90760293    -0.19400
F3398       F  0.98014833  0.88600549  0.91319461    -0.15700
F3399       F  0.94685390  0.88733596  0.91594986    -0.19200
F3400       F  0.96806428  0.83356885  0.78268326    -0.22500
F3401       F  0.98922599  0.86817023  0.76926998    -0.24000
F3402       F  0.95596847  0.87512695  0.76368529    -0.18000
F3403       F  0.05835156  0.82591467  0.85037429    -0.20500
F3404       F  0.05523970  0.81461510  0.80301553    -0.21700
F3405       F  0.03050100  0.80525164  0.83371278    -0.18800
F3406       F  0.01524499  0.94776792  0.77689282    -0.18900
F3407       F  0.01500915  0.95902233  0.82406891    -0.22800
F3408       F  0.98770746  0.94002996  0.80307939    -0.24400
C3409       C  0.86131127  0.52353086  0.70528772    -0.11200
C3410       C  0.87852784  0.51602189  0.72146112     0.11400
C3411       C  0.89693218  0.52984286  0.71572699    -0.03000
C3412       C  0.89739122  0.55072705  0.69362281    -0.05700
C3413       C  0.88020764  0.55789492  0.67686784    -0.16500
C3414       C  0.86164386  0.54449651  0.68341340     0.02400
C3415       C  0.88404895  0.98501521  0.73925391     0.12400
C3416       C  0.91604196  0.52237135  0.73262440     0.63000
H3417       H  0.91144233  0.56107572  0.68870997     0.12400
C3418       C  0.84204439  0.55239995  0.66798367     0.55100
H3419       H  0.85243800  0.01214916  0.71719566     0.08200
C3420       C  0.87911310  0.98802648  0.76874064    -0.05600
C3421       C  0.87474030  0.96311641  0.78465921    -0.06300
C3422       C  0.87463477  0.93547656  0.77194699    -0.15900
C3423       C  0.88176335  0.93226422  0.74320348    -0.01500
C3424       C  0.88602845  0.95730072  0.72729421    -0.09100
C3425       C  0.85969083  0.52385789  0.78013924     0.65200
H3426       H  0.86980169  0.96531629  0.80678604     0.10700
C3427       C  0.88420042  0.90306169  0.72862948     0.63600
H3428       H  0.89003466  0.95560180  0.70475777     0.08000
F3429       F  0.82549128  0.54059030  0.68125490    -0.19400
F3430       F  0.84265948  0.54214549  0.63998742    -0.15700
F3431       F  0.83921646  0.58208026  0.66801926    -0.19200
F3432       F  0.92199215  0.49410612  0.72726173    -0.22500
F3433       F  0.91261576  0.52576374  0.76178939    -0.24000
F3434       F  0.93181617  0.53991184  0.72516974    -0.18000
F3435       F  0.89028875  0.90547989  0.70026078    -0.20500
F3436       F  0.86611509  0.88910596  0.72859960    -0.21700
F3437       F  0.89867165  0.88653650  0.74288247    -0.18800
F3438       F  0.85120921  0.52194090  0.80724662    -0.18900
F3439       F  0.84537464  0.53602839  0.76183418    -0.22800
F3440       F  0.87593762  0.54195278  0.78210809    -0.24400
C3441       C  0.89056677  0.76502113  0.68897261    -0.11200
C3442       C  0.87758495  0.76175366  0.71255853     0.11400
C3443       C  0.86777792  0.73507749  0.71621817    -0.03000
C3444       C  0.87099059  0.71280528  0.69578720    -0.05700
C3445       C  0.88349687  0.71640389  0.67184733    -0.16500
C3446       C  0.89380623  0.74263592  0.66861595     0.02400
C3447       C  0.87291414  0.78743706  0.73136735     0.12400
C3448       C  0.85356967  0.73039200  0.74125134     0.63000
H3449       H  0.86321523  0.69260511  0.69783957     0.12400
C3450       C  0.90799798  0.74684395  0.64353305     0.55100
H3451       H  0.89774518  0.78559010  0.68621122     0.08200
C3452       C  0.88562083  0.79643046  0.75418285    -0.05600
C3453       C  0.87942680  0.82021669  0.77150709    -0.06300
C3454       C  0.86125935  0.83587243  0.76633439    -0.15900
C3455       C  0.84912724  0.82756309  0.74218185    -0.01500
C3456       C  0.85511293  0.80325966  0.72569646    -0.09100
C3457       C  0.90566466  0.78100413  0.76005973     0.65200
H3458       H  0.88876649  0.82660844  0.78953589     0.10700
C3459       C  0.82982724  0.84332220  0.73269529     0.63600
H3460       H  0.84571974  0.79627716  0.70790665     0.08000
F3461       F  0.92295431  0.72552834  0.64398829    -0.19400
F3462       F  0.91717832  0.77337511  0.64473631    -0.15700
F3463       F  0.89740290  0.74517352  0.61784000    -0.19200
F3464       F  0.83684139  0.74857452  0.73868247    -0.22500
F3465       F  0.86330002  0.73605233  0.76700608    -0.24000
F3466       F  0.84694154  0.70228332  0.74215112    -0.18000
F3467       F  0.82685291  0.84050042  0.70325836    -0.20500
F3468       F  0.83041761  0.87246698  0.73834435    -0.21700
F3469       F  0.81351578  0.83165204  0.74654171    -0.18800
F3470       F  0.91543036  0.79232023  0.78385523    -0.18900
F3471       F  0.91814659  0.78377605  0.73651559    -0.22800
F3472       F  0.90265481  0.75202535  0.76505506    -0.24400
C3473       C  0.90130461  0.51901818  0.98519155    -0.11200
C3474       C  0.88256671  0.50927252  0.97541971     0.11400
C3475       C  0.86464352  0.52122118  0.98751040    -0.03000
C3476       C  0.86614265  0.54352082  0.00823319    -0.05700
C3477       C  0.88492467  0.55392448  0.01740732    -0.16500
C3478       C  0.90373096  0.53675460  0.50411150     0.02400
C3479       C  0.88600167  0.98051772  0.95230105     0.12400
C3480       C  0.84408452  0.51013807  0.97883098     0.63000
H3481       H  0.85258146  0.55308360  0.01746000     0.12400
C3482       C  0.92444167  0.54627301  0.51404383     0.55100
H3483       H  0.91739198  0.00993248  0.97020999     0.08200
C3484       C  0.88758265  0.98477880  0.92215923    -0.05600
C3485       C  0.88994237  0.96047146  0.90393524    -0.06300
C3486       C  0.89137670  0.93219395  0.91484413    -0.15900
C3487       C  0.88958337  0.92802815  0.94503752    -0.01500
C3488       C  0.88670849  0.95229148  0.96315348    -0.09100
C3489       C  0.88781550  0.51965081  0.91197036     0.65200
H3490       H  0.89179432  0.96343649  0.88096343     0.10700
C3491       C  0.89215688  0.89840791  0.95842038     0.63600
H3492       H  0.88590933  0.94955425  0.98628248     0.08000
F3493       F  0.92780949  0.57403636  0.50467892    -0.19400
F3494       F  0.93971509  0.52848966  0.50330793    -0.15700
F3495       F  0.92561364  0.54545637  0.54381427    -0.19200
F3496       F  0.84272666  0.48140755  0.98636685    -0.22500
F3497       F  0.84134433  0.51273736  0.94940449    -0.24000
F3498       F  0.82855819  0.52533005  0.99229081    -0.18000
F3499       F  0.89038425  0.89921945  0.98812549    -0.20500
F3500       F  0.91111717  0.88736774  0.95197694    -0.21700
F3501       F  0.87756165  0.88033698  0.94784073    -0.18800
F3502       F  0.88811375  0.01427708  0.87959513    -0.18900
F3503       F  0.90464820  0.53247690  0.92361819    -0.22800
F3504       F  0.87090188  0.53631242  0.91854062    -0.24400
C3505       C  0.87582187  0.79213895  0.93155896    -0.11200
C3506       C  0.88992422  0.78655664  0.95366931     0.11400
C3507       C  0.90755856  0.80311589  0.95532645    -0.03000
C3508       C  0.91005758  0.82557467  0.93542887    -0.05700
C3509       C  0.89579396  0.83192310  0.91354662    -0.16500
C3510       C  0.87854656  0.81431211  0.91109174     0.02400
C3511       C  0.88662805  0.76219556  0.97398219     0.12400
C3512       C  0.92400408  0.79649700  0.97753317     0.63000
H3513       H  0.92354706  0.83825050  0.93662425     0.12400
C3514       C  0.86352063  0.81759110  0.88643701     0.55100
H3515       H  0.86266667  0.77872491  0.93033674     0.08200
C3516       C  0.87689701  0.76622365  0.00074591    -0.05600
C3517       C  0.87321220  0.74055075  0.51827610    -0.06300
C3518       C  0.88616785  0.71608496  0.01438880    -0.15900
C3519       C  0.89377995  0.71129991  0.98599290    -0.01500
C3520       C  0.89430463  0.73475396  0.96665745    -0.09100
C3521       C  0.86555102  0.79425778  0.00758172     0.65200
H3522       H  0.86543379  0.74249203  0.53864213     0.10700
C3523       C  0.90084872  0.68169149  0.97542136     0.63600
H3524       H  0.90108172  0.73201944  0.94561496     0.08000
F3525       F  0.85102863  0.84133838  0.89116410    -0.19400
F3526       F  0.85147614  0.79366661  0.88395419    -0.15700
F3527       F  0.87352748  0.82065179  0.86059179    -0.19200
F3528       F  0.93173304  0.76887879  0.97315769    -0.22500
F3529       F  0.91626982  0.79841475  0.00506782    -0.24000
F3530       F  0.93978391  0.81548004  0.97571886    -0.18000
F3531       F  0.90425702  0.68143195  0.94600347    -0.20500
F3532       F  0.88623124  0.66159684  0.98095129    -0.21700
F3533       F  0.91871616  0.67361496  0.98900007    -0.18800
F3534       F  0.85088984  0.78895975  0.53309538    -0.18900
F3535       F  0.85014138  0.79839804  0.98769365    -0.22800
F3536       F  0.87831211  0.81739051  0.00630497    -0.24400
C3537       C  0.04270079  0.62298108  0.59386281    -0.11200
C3538       C  0.02751348  0.62203536  0.57268640     0.11400
C3539       C  0.03298313  0.62116310  0.54327976    -0.03000
C3540       C  0.05355774  0.62116250  0.53611603    -0.05700
C3541       C  0.06896655  0.62224404  0.55709388    -0.16500
C3542       C  0.06339179  0.62339611  0.58655821     0.02400
C3543       C  0.00592008  0.62399918  0.58154281     0.14000
C3544       C  0.01713268  0.62144308  0.51943079     0.63000
H3545       H  0.05777548  0.62193625  0.51368599     0.12400
C3546       C  0.07903224  0.62674128  0.61002230     0.55100
H3547       H  0.03813112  0.62422425  0.61620420     0.08200
C3548       C  0.99486071  0.59933277  0.58907219    -0.05600
C3549       C  0.97387077  0.60245948  0.59361954    -0.06300
C3550       C  0.96388737  0.62938486  0.59101494    -0.15900
C3551       C  0.97513962  0.65423531  0.58503632    -0.01500
C3552       C  0.99609540  0.65115058  0.58067124    -0.09100
C3553       C  0.00522481  0.56991744  0.59199057     0.65200
H3554       H  0.96497633  0.58376586  0.59844314     0.10700
C3555       C  0.96487918  0.68378043  0.58300355     0.63600
H3556       H  0.00490909  0.66980596  0.57540768     0.08000
F3557       F  0.09151623  0.60248395  0.61057473    -0.19400
F3558       F  0.07039367  0.62985894  0.63697977    -0.15700
F3559       F  0.09012080  0.65107323  0.60467184    -0.19200
F3560       F  0.00623320  0.64722232  0.52008173    -0.22500
F3561       F  0.00409024  0.59889350  0.52302304    -0.24000
F3562       F  0.02572581  0.61862142  0.49241668    -0.18000
F3563       F  0.97860472  0.70536866  0.57845578    -0.20500
F3564       F  0.95477345  0.68982786  0.60838372    -0.21700
F3565       F  0.95120251  0.68419657  0.56037546    -0.18800
F3566       F  0.99173618  0.54873301  0.59912076    -0.18900
F3567       F  0.01976871  0.57092657  0.61342581    -0.22800
F3568       F  0.01434449  0.56207753  0.56633716    -0.24400
C3569       C  0.77278446  0.60976279  0.58306647    -0.11200
C3570       C  0.76305940  0.63536667  0.57429478     0.11400
C3571       C  0.77446296  0.66039881  0.56992899    -0.03000
C3572       C  0.79551505  0.65869755  0.57419112    -0.05700
C3573       C  0.80554559  0.63294881  0.58286891    -0.16500
C3574       C  0.79384034  0.60780294  0.58717330     0.02400
C3575       C  0.74073774  0.63532376  0.57082712     0.12400
C3576       C  0.76667689  0.69428356  0.06612648     0.63000
H3577       H  0.80430689  0.67778329  0.57080580     0.12400
C3578       C  0.80306256  0.57903548  0.59666995     0.55100
H3579       H  0.76354356  0.59113526  0.58663956     0.08200
C3580       C  0.73128316  0.62417170  0.54600989    -0.05600
C3581       C  0.71006080  0.62464976  0.54459208    -0.06300
C3582       C  0.69773303  0.63491178  0.56748156    -0.15900
C3583       C  0.70769109  0.64848683  0.59131825    -0.01500
C3584       C  0.72890871  0.64668064  0.59312816    -0.09100
C3585       C  0.74358263  0.61183777  0.52106487     0.65200
H3586       H  0.70314191  0.61768132  0.52477580     0.10700
C3587       C  0.69729597  0.66553647  0.61532765     0.63600
H3588       H  0.73654354  0.65509221  0.61199383     0.08000
F3589       F  0.81579255  0.56817737  0.57554491    -0.19400
F3590       F  0.78858154  0.55857199  0.60164597    -0.15700
F3591       F  0.81363181  0.58278325  0.62205774    -0.19200
F3592       F  0.75441647  0.70710481  0.08672693    -0.22500
F3593       F  0.75514095  0.68797994  0.04211131    -0.24000
F3594       F  0.78093585  0.71408073  0.05812968    -0.18000
F3595       F  0.69480553  0.64785535  0.63892981    -0.20500
F3596       F  0.67892088  0.67731972  0.60703683    -0.21700
F3597       F  0.70904750  0.68846818  0.62375264    -0.18800
F3598       F  0.73143958  0.60286582  0.49852404    -0.18900
F3599       F  0.75498691  0.58823834  0.53026087    -0.22800
F3600       F  0.75633502  0.63250373  0.51060682    -0.24400
C3601       C  0.50047259  0.59704538  0.56549750    -0.11200
C3602       C  0.50892925  0.61173221  0.58898446     0.11400
C3603       C  0.49603111  0.62527982  0.60947913    -0.03000
C3604       C  0.47500512  0.62419308  0.60534047    -0.05700
C3605       C  0.46650133  0.60935621  0.58202311    -0.16500
C3606       C  0.47936687  0.59508974  0.56193755     0.02400
C3607       C  0.53130362  0.61395446  0.59112484     0.12400
C3608       C  0.50443943  0.64066232  0.63576621     0.63000
H3609       H  0.46492630  0.63478588  0.62054501     0.12400
C3610       C  0.47086780  0.57847523  0.53657159     0.55100
H3611       H  0.51059260  0.58715124  0.54992366     0.08200
C3612       C  0.54387612  0.59151718  0.60242588    -0.05600
C3613       C  0.56434457  0.59724972  0.60813140    -0.06300
C3614       C  0.57235935  0.62462679  0.60314302    -0.15900
C3615       C  0.56038780  0.64552369  0.58810815    -0.01500
C3616       C  0.53993663  0.63997332  0.58286956    -0.09100
C3617       C  0.53552736  0.56212144  0.60942332     0.65200
H3618       H  0.57382656  0.58098331  0.61850137     0.10700
C3619       C  0.56835639  0.67395872  0.57736995     0.63600
H3620       H  0.53040129  0.65651239  0.57291239     0.08000
F3621       F  0.46052084  0.55492356  0.54645425    -0.19400
F3622       F  0.48592428  0.56839928  0.51832571    -0.15700
F3623       F  0.45786494  0.59617313  0.52081284    -0.19200
F3624       F  0.51533571  0.66423656  0.62732234    -0.22500
F3625       F  0.51692484  0.62197326  0.65121317    -0.24000
F3626       F  0.48926982  0.65044522  0.65397325    -0.18000
F3627       F  0.56206423  0.67843315  0.54921317    -0.20500
F3628       F  0.58919492  0.67451389  0.57762684    -0.21700
F3629       F  0.56079616  0.69625358  0.59430650    -0.18800
F3630       F  0.55018193  0.54365451  0.62088890    -0.18900
F3631       F  0.52813914  0.54952902  0.58460139    -0.22800
F3632       F  0.52010035  0.56502225  0.62921973    -0.24400
C3633       C  0.73894588  0.86727297  0.83644852    -0.11200
C3634       C  0.74854866  0.89207885  0.84651204     0.11400
C3635       C  0.73669220  0.91512914  0.85818238    -0.03000
C3636       C  0.71550898  0.91246196  0.85925925    -0.05700
C3637       C  0.70590716  0.88800629  0.84829870    -0.16500
C3638       C  0.71780099  0.86471377  0.83732911     0.02400
C3639       C  0.77065034  0.89457911  0.84094570     0.12400
C3640       C  0.74633396  0.94264129  0.86887176     0.63000
H3641       H  0.70617185  0.92994623  0.86775800     0.12400
C3642       C  0.70819089  0.83710078  0.82696275     0.55100
H3643       H  0.74818587  0.85016877  0.82703634     0.08200
C3644       C  0.78573332  0.88012862  0.85734603    -0.05600
C3645       C  0.80608235  0.88194851  0.84876295    -0.06300
C3646       C  0.81226681  0.89820719  0.82461192    -0.15900
C3647       C  0.79647220  0.91219198  0.80772315    -0.01500
C3648       C  0.77624174  0.91003170  0.81666986    -0.09100
C3649       C  0.78028856  0.86226206  0.88345315     0.65200
H3650       H  0.81724390  0.86921446  0.86042676     0.10700
C3651       C  0.79964986  0.93018241  0.78066778     0.63600
H3652       H  0.76416525  0.92043008  0.80444765     0.08000
F3653       F  0.72253347  0.81600774  0.82018617    -0.19400
F3654       F  0.69666339  0.84258766  0.80258681    -0.15700
F3655       F  0.69601427  0.82636513  0.84835269    -0.19200
F3656       F  0.75514763  0.95681161  0.84617508    -0.22500
F3657       F  0.76095242  0.93607095  0.88933226    -0.24000
F3658       F  0.73230896  0.96138787  0.88128256    -0.18000
F3659       F  0.78187242  0.93477476  0.76532691    -0.20500
F3660       F  0.81282191  0.91656871  0.76195161    -0.21700
F3661       F  0.80649708  0.95711728  0.78833786    -0.18800
F3662       F  0.79726282  0.85153115  0.89770461    -0.18900
F3663       F  0.76884522  0.83912989  0.87496523    -0.22800
F3664       F  0.76930767  0.87905509  0.90269335    -0.24400
C3665       C  0.64474282  0.56126832  0.97815583    -0.11200
C3666       C  0.63031732  0.54253780  0.98887916     0.11400
C3667       C  0.62168862  0.54811085  0.01627926    -0.03000
C3668       C  0.62775856  0.57271244  0.03187447    -0.05700
C3669       C  0.64249521  0.59118461  0.02125788    -0.16500
C3670       C  0.65075221  0.58582620  0.99345859     0.02400
C3671       C  0.62574681  0.51648817  0.97124177     0.12400
C3672       C  0.60676429  0.52761440  0.02941646     0.63000
H3673       H  0.61667104  0.57689769  0.54846242     0.12400
C3674       C  0.66594598  0.60483155  0.97860251     0.55100
H3675       H  0.65148135  0.55654762  0.95737023     0.08200
C3676       C  0.60988492  0.01409073  0.94484754    -0.05600
C3677       C  0.61035957  0.99036742  0.92577824    -0.06300
C3678       C  0.62280138  0.96568209  0.93062588    -0.15900
C3679       C  0.63414494  0.96410595  0.95691607    -0.01500
C3680       C  0.63555510  0.49038234  0.97838504    -0.09100
C3681       C  0.59661647  0.04041729  0.93803677     0.65200
H3682       H  0.60137536  0.99153728  0.90626196     0.10700
C3683       C  0.64677233  0.93766608  0.96561823     0.63600
H3684       H  0.64487555  0.48988167  0.99763336     0.08000
F3685       F  0.65914950  0.61120065  0.95104245    -0.19400
F3686       F  0.68423734  0.58998862  0.97668415    -0.15700
F3687       F  0.66902408  0.63075884  0.99244742    -0.19200
F3688       F  0.61613025  0.50113355  0.03444322    -0.22500
F3689       F  0.58737382  0.01779230  0.01171464    -0.24000
F3690       F  0.59305942  0.53912117  0.54944927    -0.18000
F3691       F  0.65111841  0.44003719  0.99954050    -0.20500
F3692       F  0.66288556  0.93398163  0.94705644    -0.21700
F3693       F  0.63495556  0.91341952  0.96511771    -0.18800
F3694       F  0.58462238  0.03608459  0.91394966    -0.18900
F3695       F  0.61548506  0.56724991  0.93190697    -0.22800
F3696       F  0.58405459  0.04654448  0.96102137    -0.24400
C3697       C  0.63378689  0.73947880  0.01649931    -0.11200
C3698       C  0.63077945  0.73282311  0.98734065     0.11400
C3699       C  0.63115861  0.70348788  0.97847364    -0.03000
C3700       C  0.63482864  0.68175781  0.99928890    -0.05700
C3701       C  0.63930174  0.68859296  0.02808758    -0.16500
C3702       C  0.63806668  0.71788049  0.03707376     0.02400
C3703       C  0.62941570  0.75724977  0.96640718     0.12400
C3704       C  0.62903717  0.69531171  0.94691300     0.63000
H3705       H  0.63570143  0.65932550  0.99277692     0.12400
C3706       C  0.63653681  0.72261967  0.57131185     0.55100
H3707       H  0.63377007  0.76200940  0.02282846     0.08200
C3708       C  0.61107562  0.77227138  0.96010218    -0.05600
C3709       C  0.61116565  0.79498641  0.93982175    -0.06300
C3710       C  0.62916286  0.80437106  0.92730674    -0.15900
C3711       C  0.64771154  0.79036268  0.93511818    -0.01500
C3712       C  0.64739614  0.76671132  0.95417739    -0.09100
C3713       C  0.59168941  0.76489944  0.97545947     0.65200
H3714       H  0.59718665  0.80618323  0.93414298     0.10700
C3715       C  0.66779403  0.80001543  0.92327462     0.63600
H3716       H  0.66133125  0.75554878  0.96015706     0.08000
F3717       F  0.62421205  0.70570817  0.58780554    -0.19400
F3718       F  0.65639786  0.71774512  0.57935511    -0.15700
F3719       F  0.63160751  0.75125406  0.57703435    -0.19200
F3720       F  0.64510485  0.70587657  0.93162146    -0.22500
F3721       F  0.61128431  0.70684332  0.93566580    -0.24000
F3722       F  0.62881490  0.66567203  0.94306905    -0.18000
F3723       F  0.67203414  0.82719139  0.93377050    -0.20500
F3724       F  0.66701510  0.80075318  0.89349642    -0.21700
F3725       F  0.68355863  0.78155050  0.93126737    -0.18800
F3726       F  0.57557092  0.78214227  0.96634039    -0.18900
F3727       F  0.59409009  0.76898555  0.00479312    -0.22800
F3728       F  0.58695504  0.73644660  0.97037413    -0.24400
C3729       C  0.61606189  0.98313333  0.71776515    -0.11200
C3730       C  0.62047157  0.50731329  0.72820988     0.11400
C3731       C  0.63019256  0.01672864  0.75242254    -0.03000
C3732       C  0.63118346  0.99412349  0.77284043    -0.05700
C3733       C  0.62491463  0.96613271  0.76609608    -0.16500
C3734       C  0.61731053  0.96048437  0.73804223     0.02400
C3735       C  0.61813289  0.52942446  0.70497787     0.12400
C3736       C  0.62522934  0.54654484  0.76655460     0.63000
H3737       H  0.63679411  0.99815994  0.79440954     0.12400
C3738       C  0.61021411  0.93073120  0.72973758     0.55100
H3739       H  0.61599178  0.47268011  0.69852568     0.08200
C3740       C  0.63406837  0.53709731  0.68645650    -0.05600
C3741       C  0.63102442  0.56051795  0.66728444    -0.06300
C3742       C  0.61274565  0.57652060  0.66648697    -0.15900
C3743       C  0.59650989  0.56767776  0.68417389    -0.01500
C3744       C  0.59941285  0.54371703  0.70232215    -0.09100
C3745       C  0.65073548  0.02061504  0.67455620     0.65200
H3746       H  0.64332983  0.56763589  0.65398581     0.10700
C3747       C  0.57600332  0.58286390  0.68610726     0.63600
H3748       H  0.58714657  0.53708696  0.71602031     0.08000
F3749       F  0.60179879  0.93030698  0.70236239    -0.19400
F3750       F  0.59579639  0.92174296  0.74899078    -0.15700
F3751       F  0.62649300  0.91161138  0.73016240    -0.19200
F3752       F  0.60783319  0.56214575  0.75979204    -0.22500
F3753       F  0.64134158  0.55840632  0.75239132    -0.24000
F3754       F  0.64494017  0.04722451  0.78855102    -0.18000
F3755       F  0.56121671  0.56381823  0.67800574    -0.20500
F3756       F  0.57407201  0.60698685  0.66902221    -0.21700
F3757       F  0.57261129  0.59134222  0.71430257    -0.18800
F3758       F  0.66171792  0.02956069  0.65104865    -0.18900
F3759       F  0.64487815  0.99260917  0.66945133    -0.22800
F3760       F  0.66321952  0.02096360  0.69849847    -0.24400
C3761       C  0.63537814  0.71011200  0.70997575    -0.11200
C3762       C  0.62012342  0.73124956  0.71187758     0.11400
C3763       C  0.60331563  0.72997511  0.69316930    -0.03000
C3764       C  0.60216512  0.70687720  0.67350768    -0.05700
C3765       C  0.61678838  0.68414485  0.67248523    -0.16500
C3766       C  0.63427236  0.68652855  0.69088654     0.02400
C3767       C  0.62255533  0.75501744  0.73316320     0.12400
C3768       C  0.58644706  0.75277255  0.69429924     0.63000
H3769       H  0.58964115  0.70716684  0.65878602     0.12400
C3770       C  0.65239570  0.66556412  0.69295577     0.55100
H3771       H  0.64843170  0.71199259  0.72403380     0.08200
C3772       C  0.61827060  0.75150395  0.76273927    -0.05600
C3773       C  0.62024980  0.77534687  0.78136109    -0.06300
C3774       C  0.62653870  0.80244203  0.77148643    -0.15900
C3775       C  0.63139383  0.80549736  0.74176986    -0.01500
C3776       C  0.62951953  0.78150060  0.72330953    -0.09100
C3777       C  0.61160834  0.72267515  0.77451309     0.65200
H3778       H  0.61687349  0.77289821  0.80400474     0.10700
C3779       C  0.63762636  0.83404860  0.72899146     0.63600
H3780       H  0.63317214  0.78327164  0.70067427     0.08000
F3781       F  0.66996052  0.68077840  0.68953717    -0.19400
F3782       F  0.65292085  0.64354360  0.67305522    -0.15700
F3783       F  0.65270163  0.65323273  0.72008062    -0.19200
F3784       F  0.59386015  0.77947552  0.68729163    -0.22500
F3785       F  0.57843716  0.75403997  0.72172328    -0.24000
F3786       F  0.57091552  0.74682890  0.67525119    -0.18000
F3787       F  0.65610824  0.84187013  0.74018922    -0.20500
F3788       F  0.62314603  0.85501626  0.73525941    -0.21700
F3789       F  0.63946812  0.83265782  0.69930845    -0.18800
F3790       F  0.60741488  0.72417574  0.80367082    -0.18900
F3791       F  0.62673007  0.70202182  0.77061326    -0.22800
F3792       F  0.59437413  0.71399817  0.76030558    -0.24400
C3793       C  0.51677346  0.87264261  0.81445952    -0.11200
C3794       C  0.50454176  0.88620827  0.83527926     0.11400
C3795       C  0.51365170  0.89948422  0.85946678    -0.03000
C3796       C  0.53492604  0.89953284  0.86144523    -0.05700
C3797       C  0.54715215  0.88577674  0.84068026    -0.16500
C3798       C  0.53798701  0.87217242  0.81669127     0.02400
C3799       C  0.48222214  0.88457604  0.83161091     0.12400
C3800       C  0.50094021  0.91295004  0.88330179     0.63000
H3801       H  0.54221869  0.90975449  0.87962532     0.12400
C3802       C  0.55056330  0.85781173  0.79319186     0.55100
H3803       H  0.50946207  0.86216825  0.79643722     0.08200
C3804       C  0.47121063  0.90306057  0.81262978    -0.05600
C3805       C  0.45057883  0.89794477  0.80775055    -0.06300
C3806       C  0.44098952  0.87434742  0.82010864    -0.15900
C3807       C  0.45175517  0.85670437  0.84013434    -0.01500
C3808       C  0.47226255  0.86219397  0.84554547    -0.09100
C3809       C  0.48140731  0.92716582  0.79650502     0.65200
H3810       H  0.44209049  0.91127442  0.79273501     0.10700
C3811       C  0.44166578  0.83224255  0.85578963     0.63600
H3812       H  0.48097046  0.84822730  0.85984983     0.08000
F3813       F  0.56412435  0.87723478  0.78235856    -0.19400
F3814       F  0.53871845  0.84834689  0.77053367    -0.15700
F3815       F  0.56103426  0.83416980  0.80428993    -0.19200
F3816       F  0.48968038  0.89194042  0.89632283    -0.22500
F3817       F  0.48801782  0.93394341  0.87210335    -0.24000
F3818       F  0.51275026  0.92565210  0.90429306    -0.18000
F3819       F  0.45386311  0.82090350  0.87748705    -0.20500
F3820       F  0.43731084  0.81021384  0.83679890    -0.21700
F3821       F  0.42399346  0.84233899  0.86821618    -0.18800
F3822       F  0.46769874  0.94362099  0.78056102    -0.18900
F3823       F  0.49558407  0.91558026  0.77777962    -0.22800
F3824       F  0.49089685  0.94529911  0.81570405    -0.24400
loop_ 
_geom_bond_atom_site_label_1 
_geom_bond_atom_site_label_2 
_geom_bond_distance 
_geom_bond_site_symmetry_2 
_ccdc_geom_bond_type 
O1           C17   1.276       .  A
O1           Zn7   2.037       .  S
C2           O18   1.274       .  A
C2           O15   1.276       .  A
C2          C929   1.479       .  S
O3           C16   1.274       .  A
O3          Cd10   2.077       .  S
O4           C22   1.278       .  A
O4          Cd13   2.093       .  S
O5           C19   1.274       .  A
O5           Cd9   2.077       .  S
O6           C17   1.275       .  A
O6           Cd9   2.080       .  S
Zn7          O18   2.024       .  S
Zn7          O20   2.021       .  S
Zn7          O12   1.957       .  S
O8           C19   1.278       .  A
O8          Cd13   2.085       .  S
Cd9          O11   2.090       .  S
Cd9          O12   2.006       .  S
Cd10         O14   2.093       .  S
Cd10         O23   2.093       .  S
Cd10         O12   2.010       .  S
O11          C21   1.277       .  A
O12         Cd13   2.013       .  S
Cd13         O15   2.087       .  S
O14          C21   1.278       .  A
C16          O20   1.275       .  A
C16         C906   1.490       .  S
C17         C842   1.488       .  S
C19         C810   1.505       .  S
C21         C769   1.490       .  S
C22          O23   1.277       .  A
C22         C865   1.489       .  S
C24          C25   1.529       .  S
C24          C30   1.556       .  S
C24          C28   1.531       .  S
C24         C897   1.549       .  S
C25          H32   1.087       .  S
C25          C26   1.361       .  D
C26          C27   1.550       .  S
C26         C874   1.487       .  S
C27          C31   1.537       .  S
C27          C29   1.546       .  S
C27          H33   1.111       .  S
C28          H34   1.086       .  S
C28          C29   1.364       .  D
C29          C41   1.485       .  S
C30          H35   1.079       .  S
C30          C31   1.371       .  D
C31         C746   1.489       .  S
C36          C37   1.536       .  S
C36          C42   1.543       .  S
C36          C40   1.537       .  S
C36         C714   1.549       .  S
C37          H44   1.087       .  S
C37          C38   1.363       .  D
C38          C39   1.546       .  S
C38        C1789   1.495       .  S
C39          C43   1.545       .  S
C39          C41   1.551       .  S
C39          H45   1.111       .  S
C40          H46   1.081       .  S
C40          C41   1.368       .  D
C42          H47   1.085       .  S
C42          C43   1.363       .  D
C43        C1757   1.487       .  S
O48          C64   1.275       .  A
O48         Zn54   2.036       .  S
C49          O65   1.278       .  A
C49          O62   1.276       .  A
C49        C1565   1.500       .  S
O50          C63   1.278       .  A
O50         Cd57   2.098       .  S
O51          C69   1.275       .  A
O51         Cd60   2.074       .  S
O52          C66   1.277       .  A
O52         Cd56   2.085       .  S
O53          C64   1.277       .  A
O53         Cd56   2.081       .  S
Zn54         O65   2.051       .  S
Zn54         O67   2.046       .  S
Zn54         O59   1.958       .  S
O55          C66   1.276       .  A
O55         Cd60   2.091       .  S
Cd56         O58   2.082       .  S
Cd56         O59   2.014       .  S
Cd57         O61   2.109       .  S
Cd57         O70   2.105       .  S
Cd57         O59   2.026       .  S
O58          C68   1.276       .  A
O59         Cd60   2.009       .  S
Cd60         O62   2.091       .  S
O61          C68   1.280       .  A
C63          O67   1.277       .  A
C63         C545   1.501       .  S
C64         C705   1.501       .  S
C66        C1606   1.508       .  S
C68         C577   1.487       .  S
C69          O70   1.279       .  A
C69         C682   1.482       .  S
C71          C72   1.532       .  S
C71          C77   1.532       .  S
C71          C75   1.548       .  S
C71         C513   1.551       .  S
C72          H79   1.087       .  S
C72          C73   1.366       .  D
C73          C74   1.556       .  S
C73         C641   1.506       .  S
C74          C78   1.552       .  S
C74          C76   1.562       .  S
C74          H80   1.101       .  S
C75          H81   1.065       .  S
C75          C76   1.370       .  D
C76          C88   1.514       .  S
C77          H82   1.087       .  S
C77          C78   1.363       .  D
C78         C618   1.503       .  S
C83          C84   1.534       .  S
C83          C89   1.542       .  S
C83          C87   1.549       .  S
C83         C778   1.561       .  S
C84          H91   1.084       .  S
C84          C85   1.364       .  D
C85          C86   1.550       .  S
C85         C586   1.511       .  S
C86          C90   1.545       .  S
C86          C88   1.564       .  S
C86          H92   1.094       .  S
C87          H93   1.082       .  S
C87          C88   1.371       .  D
C89          H94   1.075       .  S
C89          C90   1.371       .  D
C90         C554   1.515       .  S
O95         C111   1.277       .  A
O95        Zn101   2.037       .  S
C96         O112   1.277       .  A
C96         O109   1.278       .  A
C96         C394   1.497       .  S
O97         C110   1.276       .  A
O97        Cd104   2.089       .  S
O98         C116   1.275       .  A
O98        Cd107   2.078       .  S
O99         C113   1.275       .  A
O99        Cd103   2.079       .  S
O100        C111   1.274       .  A
O100       Cd103   2.079       .  S
Zn101       O112   2.052       .  S
Zn101       O114   2.025       .  S
Zn101       O106   1.958       .  S
O102        C113   1.279       .  A
O102       Cd107   2.095       .  S
Cd103       O105   2.086       .  S
Cd103       O106   2.012       .  S
Cd104       O108   2.102       .  S
Cd104       O117   2.093       .  S
Cd104       O106   2.019       .  S
O105        C115   1.276       .  A
O106       Cd107   2.015       .  S
Cd107       O109   2.095       .  S
O108        C115   1.278       .  A
C110        O114   1.274       .  A
C110        C490   1.477       .  S
C111        C737   1.485       .  S
C113        C417   1.499       .  S
C115        C458   1.489       .  S
C116        O117   1.278       .  A
C116        C362   1.478       .  S
C118        C119   1.536       .  S
C118        C124   1.537       .  S
C118        C122   1.544       .  S
C118        C481   1.550       .  S
C119        H126   1.086       .  S
C119        C120   1.367       .  D
C120        C121   1.539       .  S
C120        C938   1.484       .  S
C121        C125   1.548       .  S
C121        C123   1.545       .  S
C121        H127   1.111       .  S
C122        H128   1.081       .  S
C122        C123   1.367       .  D
C123        C135   1.489       .  S
C124        H129   1.086       .  S
C124        C125   1.364       .  D
C125        C449   1.489       .  S
C130        C131   1.531       .  S
C130        C136   1.538       .  S
C130        C134   1.548       .  S
C130        C321   1.550       .  S
C131        H138   1.087       .  S
C131        C132   1.363       .  D
C132        C133   1.546       .  S
C132        C426   1.487       .  S
C133        C137   1.551       .  S
C133        C135   1.544       .  S
C133        H139   1.110       .  S
C134        H140   1.083       .  S
C134        C135   1.365       .  D
C136        H141   1.085       .  S
C136        C137   1.370       .  D
C137        C385   1.498       .  S
O142        C158   1.273       .  A
O142       Zn148   2.027       .  S
C143        O159   1.278       .  A
C143        O156   1.271       .  A
C143        C522   1.500       .  S
O144        C157   1.278       .  A
O144       Cd151   2.096       .  S
O145        C163   1.273       .  A
O145       Cd154   2.075       .  S
O146        C160   1.277       .  A
O146       Cd150   2.096       .  S
O147        C158   1.279       .  A
O147       Cd150   2.093       .  S
Zn148       O159   2.030       .  S
Zn148       O161   2.037       .  S
Zn148       O153   1.949       .  S
O149        C160   1.273       .  A
O149       Cd154   2.069       .  S
Cd150       O152   2.078       .  S
Cd150       O153   2.012       .  S
Cd151       O155   2.064       .  S
Cd151       O164   2.092       .  S
Cd151       O153   2.010       .  S
O152        C162   1.276       .  A
O153       Cd154   1.999       .  S
Cd154       O156   2.062       .  S
O155        C162   1.274       .  A
C157        O161   1.275       .  A
C157        C289   1.501       .  S
C158        C225   1.504       .  S
C160        C193   1.484       .  S
C162        C330   1.469       .  S
C163        O164   1.278       .  A
C163        C266   1.498       .  S
C165        C166   1.544       .  S
C165        C171   1.528       .  S
C165        C169   1.534       .  S
C165        C257   1.550   1_554  S
C166        H173   1.084       .  S
C166        C167   1.370       .  D
C167        C168   1.561       .  S
C167        C673   1.508       .  S
C168        C172   1.554       .  S
C168        C170   1.558       .  S
C168        H174   1.108       .  S
C169        H175   1.081       .  S
C169        C170   1.368       .  D
C170        C182   1.501       .  S
C171        H176   1.087   1_554  S
C171        C172   1.361       .  D
C172        C298   1.497       .  S
C177        C178   1.534       .  S
C177        C183   1.534       .  S
C177        C181   1.557       .  S
C177        C353   1.555       .  S
C178        H185   1.086       .  S
C178        C179   1.362       .  D
C179        C180   1.549       .  S
C179        C234   1.494       .  S
C180        C184   1.550       .  S
C180        C182   1.546       .  S
C180        H186   1.102       .  S
C181        H187   1.080       .  S
C181        C182   1.373       .  D
C183        H188   1.086       .  S
C183        C184   1.366       .  D
C184        C202   1.499       .  S
C189        C190   1.403       .  A
C189        C194   1.410       .  A
C189        H199   1.083       .  S
C190        C195   1.490       .  S
C190        C191   1.418       .  A
C191        C196   1.520       .  S
C191        C192   1.410       .  A
C192        C193   1.403       .  A
C192        H197   1.083       .  S
C193        C194   1.418       .  A
C194        C198   1.517       .  S
C195        C200   1.417       .  A
C195        C204   1.398       .  A
C196        F212   1.382       .  S
C196        F213   1.382       .  S
C196        F214   1.384       .  S
C198        F209   1.381       .  S
C198        F210   1.384       .  S
C198        F211   1.384       .  S
C200        C205   1.518       .  S
C200        C201   1.412       .  A
C201        C202   1.406       .  A
C201        H206   1.082       .  S
C202        C203   1.425       .  A
C203        C207   1.517       .  S
C203        C204   1.405       .  A
C204        H208   1.085       .  S
C205        F218   1.385       .  S
C205        F219   1.382       .  S
C205        F220   1.382       .  S
C207        F215   1.384       .  S
C207        F216   1.378       .  S
C207        F217   1.383       .  S
C221        C226   1.412       .  A
C221       C2134   1.399       .  A
C221        H231   1.083       .  S
C222        C227   1.495       .  S
C222       C2133   1.402       .  A
C222       C2135   1.416   1_545  A
C223       C2140   1.521       .  S
C223        C224   1.408       .  A
C223       C2134   1.415       .  A
C224        C225   1.410       .  A
C224        H229   1.082       .  S
C225        C226   1.431       .  A
C226        C230   1.521       .  S
C227        C232   1.418       .  A
C227        C236   1.399       .  A
C228       C2135   1.521       .  S
C228        F244   1.382   1_565  S
C228        F245   1.382       .  S
C228        F246   1.385       .  S
C230        F241   1.385       .  S
C230        F242   1.383       .  S
C230        F243   1.383       .  S
C232       C2149   1.516       .  S
C232        C233   1.415       .  A
C233        C234   1.405       .  A
C233        H238   1.083       .  S
C234        C235   1.421       .  A
C235        C239   1.513       .  S
C235        C236   1.405       .  A
C236        H240   1.084       .  S
C237       C2144   1.516       .  S
C237        F250   1.385       .  S
C237        F251   1.382       .  S
C237        F252   1.382       .  S
C239        F247   1.385       .  S
C239        F248   1.379       .  S
C239        F249   1.381       .  S
C253        C258   1.411       .  A
C253       C1210   1.398       .  A
C253        H263   1.085       .  S
C254        C259   1.494       .  S
C254        C255   1.412       .  A
C254       C1209   1.397       .  A
C255        C260   1.521       .  S
C255       C1212   1.408       .  A
C256        C257   1.416       .  A
C256       C1211   1.409       .  A
C256        H261   1.077       .  S
C257        C258   1.437       .  A
C258        C262   1.526       .  S
C259        C264   1.415       .  A
C259        C268   1.402       .  A
C260        F276   1.382       .  S
C260        F277   1.383       .  S
C260        F278   1.384       .  S
C262        F273   1.383   1_556  S
C262        F274   1.385       .  S
C262        F275   1.377       .  S
C264       C1225   1.518       .  S
C264        C265   1.409       .  A
C265        C266   1.407       .  A
C265        H270   1.082       .  S
C266        C267   1.427       .  A
C267        C271   1.521       .  S
C267        C268   1.412       .  A
C268        H272   1.083       .  S
C269       C1220   1.518       .  S
C269        F282   1.384       .  S
C269        F283   1.383       .  S
C269        F284   1.382       .  S
C271        F279   1.385       .  S
C271        F280   1.384       .  S
C271        F281   1.383       .  S
C285        C286   1.404   1_545  A
C285       C2202   1.410   1_545  A
C285        H295   1.083       .  S
C286        C291   1.495   1_565  S
C286       C2199   1.418       .  A
C287        C292   1.516       .  S
C287        C288   1.413       .  A
C287       C2198   1.414       .  A
C288        C289   1.410       .  A
C288        H293   1.083       .  S
C289        C290   1.426       .  A
C290        C294   1.521       .  S
C290       C2197   1.411       .  A
C291        C296   1.419       .  A
C291       C1256   1.401       .  A
C292        F310   1.384       .  S
C292       F1264   1.382       .  S
C292       F2221   1.383       .  S
C294        F306   1.385       .  S
C294        F307   1.383       .  S
C294       F2217   1.384       .  S
C296        C301   1.518       .  S
C296        C297   1.413       .  A
C297       C1254   1.405       .  A
C297        H302   1.084       .  S
C298        C299   1.417       .  A
C298       C1253   1.406   1_554  A
C299        C303   1.510       .  S
C299        C300   1.409   1_554  A
C300       C1247   1.402       .  A
C300        H304   1.083       .  S
C301        F314   1.385       .  S
C301        F315   1.382       .  S
C301        F316   1.382   1_545  S
C303        F311   1.385       .  S
C303        F312   1.378   1_554  S
C303        F313   1.382       .  S
F305       C2206   1.384       .  S
F308       C1248   1.382       .  S
F309       C2204   1.382       .  S
C317        C318   1.395       .  A
C317        C322   1.408       .  A
C317        H327   1.085       .  S
C318        C323   1.484       .  S
C318        C319   1.409       .  A
C319        C324   1.522       .  S
C319        C320   1.405       .  A
C320        C321   1.417       .  A
C320        H325   1.076       .  S
C321        C322   1.438       .  A
C322        C326   1.523       .  S
C323        C328   1.417       .  A
C323        C332   1.403       .  A
C324        F340   1.381       .  S
C324        F341   1.382       .  S
C324        F342   1.384       .  S
C326        F337   1.383       .  S
C326        F338   1.385       .  S
C326        F339   1.371       .  S
C328        C333   1.518       .  S
C328        C329   1.408       .  A
C329        C330   1.402       .  A
C329        H334   1.083       .  S
C330        C331   1.412       .  A
C331        C335   1.517       .  S
C331        C332   1.404       .  A
C332        H336   1.083       .  S
C333        F346   1.385       .  S
C333        F347   1.382       .  S
C333        F348   1.382       .  S
C335        F343   1.383       .  S
C335        F344   1.383       .  S
C335        F345   1.385       .  S
C349        C350   1.390       .  A
C349        C354   1.404       .  A
C349        H359   1.086       .  S
C350        C355   1.489       .  S
C350        C351   1.410       .  A
C351        C356   1.520       .  S
C351        C352   1.413       .  A
C352        C353   1.420       .  A
C352        H357   1.071       .  S
C353        C354   1.443       .  A
C354        C358   1.525       .  S
C355        C360   1.419       .  A
C355        C364   1.404       .  A
C356        F372   1.382       .  S
C356        F373   1.382       .  S
C356        F374   1.385       .  S
C358        F369   1.384       .  S
C358        F370   1.367       .  S
C358        F371   1.385       .  S
C360        C365   1.520       .  S
C360        C361   1.409       .  A
C361        C362   1.401       .  A
C361        H366   1.083       .  S
C362        C363   1.414       .  A
C363        C367   1.516       .  S
C363        C364   1.409       .  A
C364        H368   1.083       .  S
C365        F378   1.384       .  S
C365        F379   1.382       .  S
C365        F380   1.382       .  S
C367        F375   1.383       .  S
C367        F376   1.383       .  S
C367        F377   1.385       .  S
C381        C382   1.399       .  A
C381        C386   1.404       .  A
C381        H391   1.085       .  S
C382        C387   1.493       .  S
C382        C383   1.418       .  A
C383       C1344   1.518       .  S
C383        C384   1.414       .  A
C384        C385   1.407       .  A
C384        H389   1.082       .  S
C385        C386   1.423       .  A
C386        C390   1.516       .  S
C387        C396   1.404       .  A
C387       C1348   1.419       .  A
C388       C1339   1.518       .  S
C388        F404   1.382       .  S
C388        F405   1.383       .  S
C388        F406   1.385       .  S
C390        F401   1.383       .  S
C390        F402   1.384       .  S
C390        F403   1.378       .  S
C392        C397   1.520       .  S
C392        C393   1.413       .  A
C392       C1343   1.420       .  A
C393        C394   1.407   1_556  A
C393        H398   1.083   1_556  S
C394        C395   1.421   1_554  A
C395        C399   1.518       .  S
C395       C1352   1.415       .  A
C396       C1351   1.413       .  A
C396        H400   1.083       .  S
C397        F410   1.385       .  S
C397        F412   1.383       .  S
C397       F1367   1.382       .  S
C399        F408   1.384       .  S
C399        F409   1.382   1_556  S
C399       F1363   1.384       .  S
F407       C1355   1.385       .  S
F411       C1353   1.382       .  S
C413       C1370   1.400       .  A
C413       C2330   1.412       .  A
C413       H1379   1.083       .  S
C414        C419   1.489       .  S
C414       C1369   1.401       .  A
C414       C2327   1.417       .  A
C415       C2332   1.521   1_545  S
C415       C2326   1.419   1_545  A
C415       C1372   1.410       .  A
C416        C417   1.408   1_556  A
C416       C1371   1.409       .  A
C416        H421   1.083       .  S
C417        C418   1.426   1_554  A
C418        C422   1.520   1_556  S
C418       C2325   1.412   1_545  A
C419        C424   1.418       .  A
C419        C428   1.398       .  A
C420       C2327   1.521       .  S
C420        F436   1.382       .  S
C420        F437   1.382       .  S
C420       F2350   1.385       .  S
C422        F433   1.385   1_544  S
C422        F435   1.383       .  S
C422       F2346   1.383       .  S
H423       C1369   1.083       .  S
C424        C429   1.517       .  S
C424        C425   1.413       .  A
C425        C426   1.405       .  A
C425        H430   1.083       .  S
C426        C427   1.420       .  A
C427        C431   1.515       .  S
C427        C428   1.401       .  A
C428       H1388   1.085       .  S
C429        F442   1.385       .  S
C429        F443   1.382       .  S
C429       F2356   1.382       .  S
C431        F439   1.384       .  S
C431        F440   1.376       .  S
C431        F441   1.383       .  S
H432       C1384   1.084       .  S
F434       C2334   1.383       .  S
F438       C2332   1.385   1_545  S
F444       C2341   1.383   1_545  S
C445        C446   1.406       .  A
C445        C450   1.413       .  A
C445        H455   1.083       .  S
C446        C451   1.495       .  S
C446        C447   1.417       .  A
C447        C452   1.519       .  S
C447        C448   1.409       .  A
C448        C449   1.404       .  A
C448        H453   1.083       .  S
C449        C450   1.414       .  A
C450        C454   1.515       .  S
C451        C456   1.418       .  A
C451       C2372   1.404       .  A
C452        F468   1.382       .  S
C452        F469   1.382       .  S
C452        F470   1.385       .  S
C454        F465   1.383       .  S
C454        F466   1.384       .  S
C454        F467   1.383       .  S
C456        C461   1.520       .  S
C456       C2369   1.411       .  A
C457        C458   1.404       .  A
C457       C2368   1.411   1_545  A
C457        H462   1.083       .  S
C458        C459   1.419       .  A
C459        C463   1.518       .  S
C459        C460   1.413       .  A
C460       C2363   1.404   1_545  A
C460        H464   1.083       .  S
C461        F474   1.384       .  S
C461        F475   1.382       .  S
C461        F476   1.382       .  S
C463        F471   1.382       .  S
C463        F472   1.384       .  S
C463        F473   1.385       .  S
C477        C478   1.398       .  A
C477        C482   1.410       .  A
C477        H487   1.085       .  S
C478        C483   1.490       .  S
C478        C479   1.411       .  A
C479        C484   1.521       .  S
C479        C480   1.408       .  A
C480        C481   1.416       .  A
C480        H485   1.076       .  S
C481        C482   1.437       .  A
C482        C486   1.526       .  S
C483        C488   1.416       .  A
C483        C492   1.402       .  A
C484        F500   1.382       .  S
C484        F501   1.382       .  S
C484        F502   1.384       .  S
C486        F497   1.383       .  S
C486        F498   1.385       .  S
C486        F499   1.376       .  S
C488        C493   1.519       .  S
C488        C489   1.411       .  A
C489        C490   1.404       .  A
C489        H494   1.083       .  S
C490        C491   1.419       .  A
C491        C495   1.520       .  S
C491        C492   1.406       .  A
C492        H496   1.085       .  S
C493        F506   1.385       .  S
C493        F507   1.383       .  S
C493        F508   1.382       .  S
C495        F503   1.383       .  S
C495        F504   1.382       .  S
C495        F505   1.384       .  S
C509        C510   1.393       .  A
C509        C514   1.405       .  A
C509        H519   1.085       .  S
C510        C515   1.482   1_655  S
C510        C511   1.406       .  A
C511        C516   1.522       .  S
C511        C512   1.408       .  A
C512        C513   1.421       .  A
C512        H517   1.062       .  S
C513        C514   1.441       .  A
C514        C518   1.529       .  S
C515        C520   1.412       .  A
C515        C524   1.398       .  A
C516        F532   1.382       .  S
C516        F533   1.382       .  S
C516        F534   1.385       .  S
C518        F529   1.384       .  S
C518        F530   1.384       .  S
C518        F531   1.372       .  S
C520        C525   1.521       .  S
C520        C521   1.405       .  A
C521        C522   1.412       .  A
C521        H526   1.082       .  S
C522        C523   1.431       .  A
C523        C527   1.522       .  S
C523        C524   1.408       .  A
C524        H528   1.083       .  S
C525        F538   1.384       .  S
C525        F539   1.382       .  S
C525        F540   1.382   1_455  S
C527        F535   1.383       .  S
C527        F536   1.383       .  S
C527        F537   1.385       .  S
C541        C542   1.400       .  A
C541        C546   1.408       .  A
C541       H2463   1.083       .  S
C542       C2459   1.495   1_545  S
C542        C543   1.418       .  A
C543        C548   1.519       .  S
C543        C544   1.414       .  A
C544        C545   1.409       .  A
C544        H549   1.083       .  S
C545        C546   1.423       .  A
C546        C550   1.515       .  S
C547       C2454   1.494       .  S
C547        C552   1.414       .  A
C547        C556   1.400       .  A
C548        F564   1.381   1_545  S
C548        F565   1.382       .  S
C548        F566   1.384       .  S
C550        F561   1.385       .  S
C550        F562   1.382       .  S
C550        F563   1.383       .  S
H551       C2453   1.083       .  S
C552       C2469   1.520       .  S
C552        C553   1.410       .  A
C553        C554   1.412       .  A
C553        H558   1.083       .  S
C554        C555   1.429       .  A
C555        C559   1.518       .  S
C555        C556   1.413       .  A
C556        H560   1.083       .  S
C557       C2464   1.519   1_545  S
C557        F570   1.385       .  S
C557        F571   1.382       .  S
C557        F572   1.382       .  S
C559        F567   1.385       .  S
C559        F568   1.374       .  S
C559        F569   1.380       .  S
C573        C574   1.405       .  A
C573        C578   1.412       .  A
C573        H583   1.083       .  S
C574        C579   1.498       .  S
C574        C575   1.420       .  A
C575        C580   1.519       .  S
C575        C576   1.414       .  A
C576        C577   1.403       .  A
C576        H581   1.083       .  S
C577        C578   1.416       .  A
C578        C582   1.517       .  S
C579        C584   1.417       .  A
C579        C588   1.397       .  A
C580        F596   1.382       .  S
C580        F597   1.382       .  S
C580        F598   1.384       .  S
C582        F593   1.383       .  S
C582        F594   1.384       .  S
C582        F595   1.383       .  S
C584        C589   1.517       .  S
C584        C585   1.418       .  A
C585        C586   1.410       .  A
C585        H590   1.083       .  S
C586        C587   1.430       .  A
C587        C591   1.519       .  S
C587        C588   1.407       .  A
C588        H592   1.085       .  S
C589        F602   1.384       .  S
C589        F603   1.383       .  S
C589        F604   1.382       .  S
C591        F599   1.385       .  S
C591        F600   1.376       .  S
C591        F601   1.382       .  S
C605        C606   1.402       .  A
C605       C1566   1.410       .  A
C605       H2527   1.083       .  S
C606       C2523   1.495   1_545  S
C606        C607   1.416       .  A
C607        C612   1.518       .  S
C607        C608   1.413       .  A
C608        C609   1.408       .  A
C608        H613   1.083       .  S
C609       C1005   1.494       .  S
C609       C1566   1.423       .  A
C610        C614   1.520       .  S
C610       C1561   1.412   1_554  A
C610       C1565   1.424       .  A
C611       C2518   1.496       .  S
C611        C616   1.417       .  A
C611        C620   1.401       .  A
C612        F628   1.382   1_545  S
C612        F629   1.383       .  S
C612        F630   1.384       .  S
C614        F625   1.383   1_554  S
C614        F626   1.385   1_554  S
C614        F627   1.384       .  S
H615       C2517   1.083       .  S
C616       C2533   1.519       .  S
C616        C617   1.412       .  A
C617        C618   1.408       .  A
C617        H622   1.083       .  S
C618        C619   1.422       .  A
C619        C623   1.513       .  S
C619        C620   1.412       .  A
C620        H624   1.083       .  S
C621       C2528   1.519   1_545  S
C621        F635   1.382       .  S
C621        F636   1.382       .  S
C621       F2546   1.384       .  S
C623        F631   1.385       .  S
C623        F632   1.378       .  S
C623        F633   1.380       .  S
F634       C2533   1.385       .  S
C637        C638   1.405       .  A
C637        C642   1.417       .  A
C637        H647   1.083       .  S
C638        C643   1.494       .  S
C638        C639   1.414       .  A
C639        C644   1.522       .  S
C639        C640   1.406       .  A
C640        C641   1.410       .  A
C640        H645   1.081       .  S
C641        C642   1.421       .  A
C642        C646   1.517       .  S
C643        C648   1.413       .  A
C643        C652   1.400       .  A
C644        F660   1.382       .  S
C644        F661   1.382       .  S
C644        F662   1.385       .  S
C646        F657   1.379       .  S
C646        F658   1.384       .  S
C646        F659   1.383       .  S
C648        C653   1.519       .  S
C648       C1605   1.410       .  A
C649       C1604   1.411       .  A
C649       C1606   1.414       .  A
C649        H654   1.082       .  S
C650       C1022   1.510       .  S
C650        C651   1.432       .  A
C650       C1605   1.413       .  A
C651        C655   1.522       .  S
C651        C652   1.413       .  A
C652        H656   1.083       .  S
C653        F667   1.382       .  S
C653        F668   1.382       .  S
C653       F1622   1.384       .  S
C655        F663   1.385       .  S
C655        F664   1.384       .  S
C655        F665   1.383       .  S
F666       C1609   1.385       .  S
C669        C670   1.404       .  A
C669        C674   1.416       .  A
C669        H679   1.083       .  S
C670        C675   1.493       .  S
C670        C671   1.415       .  A
C671        C676   1.522       .  S
C671        C672   1.406       .  A
C672        C673   1.408       .  A
C672        H677   1.080       .  S
C673        C674   1.420       .  A
C674        C678   1.510       .  S
C675        C680   1.417   1_455  A
C675        C684   1.404   1_455  A
C676        F692   1.382       .  S
C676        F693   1.382       .  S
C676        F694   1.385   1_554  S
C678        F689   1.380       .  S
C678        F690   1.385       .  S
C678        F691   1.383       .  S
C680        C685   1.518   1_655  S
C680        C681   1.413       .  A
C681        C682   1.404       .  A
C681        H686   1.083       .  S
C682        C683   1.415       .  A
C683        C687   1.517       .  S
C683        C684   1.408       .  A
C684        H688   1.083   1_655  S
C685        F698   1.385   1_455  S
C685        F699   1.382       .  S
C685        F700   1.382       .  S
C687        F695   1.385       .  S
C687        F696   1.383       .  S
C687        F697   1.383       .  S
C701        C702   1.397       .  A
C701        C706   1.407       .  A
C701        H711   1.083       .  S
C702        C707   1.485       .  S
C702        C703   1.414       .  A
C703       C1664   1.520       .  S
C703        C704   1.410       .  A
C704        C705   1.411       .  A
C704        H709   1.082       .  S
C705        C706   1.427       .  A
C706        C710   1.516       .  S
C707        C712   1.409       .  A
C707        C716   1.397       .  A
C708       C1659   1.521       .  S
C708        F724   1.382       .  S
C708        F725   1.382       .  S
C708        F726   1.384       .  S
C710        F721   1.383       .  S
C710        F722   1.385       .  S
C710        F723   1.379       .  S
C712        C717   1.522       .  S
C712        C713   1.405       .  A
C713        C714   1.418       .  A
C713        H718   1.078       .  S
C714        C715   1.436       .  A
C715        C719   1.523       .  S
C715        C716   1.410       .  A
C716        H720   1.084       .  S
C717        F730   1.385       .  S
C717        F731   1.382       .  S
C717        F732   1.382       .  S
C719        F727   1.382       .  S
C719        F728   1.377       .  S
C719        F729   1.385       .  S
C733        C734   1.403       .  A
C733        C738   1.411       .  A
C733        H743   1.083       .  S
C734        C739   1.490       .  S
C734        C735   1.418       .  A
C735        C740   1.520       .  S
C735        C736   1.408       .  A
C736        C737   1.404       .  A
C736        H741   1.083       .  S
C737        C738   1.419       .  A
C738        C742   1.517       .  S
C739        C744   1.417       .  A
C739        C748   1.402       .  A
C740        F756   1.382       .  S
C740        F757   1.383       .  S
C740        F758   1.385       .  S
C742        F753   1.383       .  S
C742        F754   1.384       .  S
C742        F755   1.383       .  S
C744        C749   1.518       .  S
C744        C745   1.410       .  A
C745        C746   1.405       .  A
C745        H750   1.083       .  S
C746        C747   1.418       .  A
C747        C751   1.518       .  S
C747        C748   1.405       .  A
C748        H752   1.085       .  S
C749        F762   1.385       .  S
C749        F763   1.382       .  S
C749        F764   1.382       .  S
C751        F759   1.384       .  S
C751        F760   1.382       .  S
C751        F761   1.383       .  S
C765        C766   1.403       .  A
C765        C770   1.410       .  A
C765        H775   1.083       .  S
C766        C771   1.494       .  S
C766        C767   1.418       .  A
C767        C772   1.519       .  S
C767        C768   1.413       .  A
C768        C769   1.406       .  A
C768        H773   1.083       .  S
C769        C770   1.419       .  A
C770        C774   1.519       .  S
C771        C776   1.411       .  A
C771        C780   1.393       .  A
C772        F788   1.382       .  S
C772        F789   1.382       .  S
C772        F790   1.384       .  S
C774        F785   1.385       .  S
C774        F786   1.382       .  S
C774        F787   1.384       .  S
C776        C781   1.519       .  S
C776        C777   1.413       .  A
C777        C778   1.420       .  A
C777        H782   1.080       .  S
C778        C779   1.444       .  A
C779        C783   1.525       .  S
C779        C780   1.409       .  A
C780        H784   1.084       .  S
C781        F794   1.385       .  S
C781        F795   1.382       .  S
C781        F796   1.382       .  S
C783        F791   1.386       .  S
C783        F792   1.374       .  S
C783        F793   1.382       .  S
C797        C798   1.400       .  A
C797        C802   1.404       .  A
C797        H807   1.085       .  S
C798        C803   1.490       .  S
C798        C799   1.417       .  A
C799        C804   1.519       .  S
C799        C800   1.412       .  A
C800        C801   1.405       .  A
C800       H1761   1.083       .  S
C801        C999   1.485       .  S
C801        C802   1.423       .  A
C802        C806   1.521       .  S
C803        C812   1.399   1_545  A
C803       C2720   1.413       .  A
C804        F820   1.382   1_545  S
C804       F2733   1.381       .  S
C804       F1778   1.384       .  S
H805       C1756   1.083       .  S
C806        F817   1.383       .  S
C806        F818   1.383       .  S
C806        F819   1.378       .  S
C808        C813   1.519       .  S
C808        C809   1.407       .  A
C808       C2715   1.414       .  A
C809        C810   1.413       .  A
C809        H814   1.084       .  S
C810        C811   1.430       .  A
C811        C815   1.522       .  S
C811       C2724   1.409       .  A
C812       C2723   1.410       .  A
C812        H816   1.083       .  S
C813        F826   1.384       .  S
C813        F828   1.382       .  S
C813       F2739   1.383       .  S
C815        F824   1.383       .  S
C815        F825   1.383       .  S
C815       F2735   1.385       .  S
F821       C2716   1.383       .  S
F822       C1760   1.385       .  S
F823       C2727   1.385       .  S
F827       C2725   1.382       .  S
C829        C830   1.402       .  A
C829        C834   1.410       .  A
C829        H839   1.083       .  S
C830        C835   1.492       .  S
C830        C831   1.420       .  A
C831        C836   1.519       .  S
C831        C832   1.411       .  A
C832        C833   1.404       .  A
C832        H837   1.081       .  S
C833        C994   1.499       .  S
C833        C834   1.420       .  A
C834       C1794   1.515       .  S
C835        C840   1.415       .  A
C835        C844   1.403       .  A
C836        F852   1.383       .  S
C836        F853   1.382       .  S
C836        F854   1.383       .  S
C838       C1790   1.515       .  S
C838        F849   1.380       .  S
C838        F850   1.379       .  S
C838        F851   1.385       .  S
C840        C845   1.516       .  S
C840        C841   1.412       .  A
C841        C842   1.406       .  A
C841        H846   1.083       .  S
C842        C843   1.421       .  A
C843        C847   1.520       .  S
C843        C844   1.410       .  A
C844        H848   1.083       .  S
C845        F858   1.384       .  S
C845        F859   1.383       .  S
C845        F860   1.383       .  S
C847        F855   1.383       .  S
C847        F856   1.384       .  S
C847        F857   1.384       .  S
C861        C866   1.412       .  A
C861       C2774   1.402       .  A
C861       H2783   1.083       .  S
C862        C867   1.492       .  S
C862       C2773   1.402   1_545  A
C862       C2775   1.419       .  A
C863       C2780   1.520       .  S
C863        C864   1.410       .  A
C863       C2774   1.419       .  A
C864        C865   1.403       .  A
C864        H869   1.083       .  S
C865        C866   1.420       .  A
C866        C870   1.515       .  S
C867        C872   1.418       .  A
C867        C876   1.398       .  A
C868       C2775   1.520       .  S
C868        F884   1.382       .  S
C868        F885   1.383       .  S
C868       F2798   1.384       .  S
C870        F881   1.385       .  S
C870        F882   1.384       .  S
C870        F883   1.381       .  S
H871       C2773   1.083       .  S
C872       C2789   1.517       .  S
C872        C873   1.414       .  A
C873        C874   1.405       .  A
C873        H878   1.083       .  S
C874        C875   1.424       .  A
C875        C879   1.520       .  S
C875        C876   1.403       .  A
C876        H880   1.085       .  S
C877       C2784   1.516       .  S
C877        F890   1.385       .  S
C877        F891   1.382       .  S
C877        F892   1.382       .  S
C879        F887   1.384       .  S
C879        F888   1.377       .  S
C879        F889   1.383       .  S
F886       C2780   1.384       .  S
C893        C894   1.394       .  A
C893        C898   1.408       .  A
C893        H903   1.085       .  S
C894        C899   1.485       .  S
C894        C895   1.408       .  A
C895        C900   1.523       .  S
C895        C896   1.406       .  A
C896        C897   1.418       .  A
C896        H901   1.069       .  S
C897        C898   1.442       .  A
C898        C902   1.530       .  S
C899        C904   1.415       .  A
C899        C908   1.399       .  A
C900        F916   1.382       .  S
C900        F917   1.382       .  S
C900        F918   1.384       .  S
C902        F913   1.384       .  S
C902        F914   1.374       .  S
C902        F915   1.384       .  S
C904        C909   1.520       .  S
C904        C905   1.408       .  A
C905        C906   1.407       .  A
C905        H910   1.083       .  S
C906        C907   1.423       .  A
C907        C911   1.517       .  S
C907        C908   1.406       .  A
C908        H912   1.083       .  S
C909        F922   1.385       .  S
C909        F923   1.382       .  S
C909        F924   1.382       .  S
C911        F919   1.382       .  S
C911        F920   1.383       .  S
C911        F921   1.385       .  S
C925        C926   1.403       .  A
C925        C930   1.407       .  A
C925        H935   1.083       .  S
C926        C931   1.490       .  S
C926        C927   1.418       .  A
C927        C932   1.518       .  S
C927        C928   1.412       .  A
C928        C929   1.403       .  A
C928        H933   1.083       .  S
C929        C930   1.415       .  A
C930        C934   1.519       .  S
C931        C936   1.418       .  A
C931        C940   1.404       .  A
C932        F948   1.382       .  S
C932        F949   1.382       .  S
C932        F950   1.384       .  S
C934        F945   1.384       .  S
C934        F946   1.384       .  S
C934        F947   1.382       .  S
C936        C941   1.520       .  S
C936        C937   1.408       .  A
C937        C938   1.402       .  A
C937        H942   1.081       .  S
C938        C939   1.417       .  A
C939        C943   1.518       .  S
C939        C940   1.407       .  A
C940        H944   1.084       .  S
C941        F954   1.385       .  S
C941        F955   1.382       .  S
C941        F956   1.382       .  S
C943        F951   1.384       .  S
C943        F952   1.382       .  S
C943        F953   1.382       .  S
O957        C973   1.276       .  A
O957       Zn963   2.035       .  S
C958        O974   1.273       .  A
C958        O971   1.277       .  A
C958       C1885   1.477       .  S
O959        C972   1.272       .  A
O959       Cd966   2.076       .  S
O960        C978   1.279       .  A
O960       Cd969   2.101       .  S
O961        C975   1.275       .  A
O961       Cd965   2.080       .  S
O962        C973   1.276       .  A
O962       Cd965   2.088       .  S
Zn963       O974   2.010       .  S
Zn963       O976   2.020       .  S
Zn963       O968   1.953       .  S
O964        C975   1.279       .  A
O964       Cd969   2.094       .  S
Cd965       O967   2.083       .  S
Cd965       O968   2.005       .  S
Cd966       O970   2.078       .  S
Cd966       O979   2.078       .  S
Cd966       O968   2.006       .  S
O967        C977   1.276       .  A
O968       Cd969   2.015       .  S
Cd969       O971   2.083       .  S
O970        C977   1.276       .  A
C972        O976   1.275       .  A
C972       C1862   1.503       .  S
C973       C1798   1.495       .  S
C975       C1766   1.507       .  S
C977       C1725   1.478       .  S
C978        O979   1.274       .  A
C978       C1821   1.491       .  S
C980        C981   1.530       .  S
C980        C986   1.553       .  S
C980        C984   1.525       .  S
C980       C1853   1.542       .  S
C981        H988   1.086       .  S
C981        C982   1.360       .  D
C982        C983   1.555       .  S
C982       C1830   1.494       .  S
C983        C987   1.542       .  S
C983        C985   1.548       .  S
C983        H989   1.111       .  S
C984        H990   1.086       .  S
C984        C985   1.361       .  D
C985        C997   1.486       .  S
C986        H991   1.083       .  S
C986        C987   1.376       .  D
C987       C1702   1.490       .  S
C992        C993   1.535       .  S
C992        C998   1.545       .  S
C992        C996   1.535       .  S
C992       C1670   1.547       .  S
C993       H1000   1.086       .  S
C993        C994   1.364       .  D
C994        C995   1.550       .  S
C995        C999   1.544       .  S
C995        C997   1.553       .  S
C995       H1001   1.111       .  S
C996       H1002   1.084       .  S
C996        C997   1.366       .  D
C998       H1003   1.084       .  S
C998        C999   1.364       .  D
O1004      C1020   1.275       .  A
O1004     Zn1010   2.037       .  S
C1005      O1021   1.277       .  A
C1005      O1018   1.274       .  A
O1006      C1019   1.279       .  A
O1006     Cd1013   2.098       .  S
O1007      C1025   1.275       .  A
O1007     Cd1016   2.072       .  S
O1008      C1022   1.279       .  A
O1008     Cd1012   2.092       .  S
O1009      C1020   1.276       .  A
O1009     Cd1012   2.078       .  S
Zn1010     O1021   2.052       .  S
Zn1010     O1023   2.036       .  S
Zn1010     O1015   1.962       .  S
O1011      C1022   1.274       .  A
O1011     Cd1016   2.083       .  S
Cd1012     O1014   2.084       .  S
Cd1012     O1015   2.011       .  S
Cd1013     O1017   2.112       .  S
Cd1013     O1026   2.103       .  S
Cd1013     O1015   2.025       .  S
O1014      C1024   1.276       .  A
O1015     Cd1016   2.005       .  S
Cd1016     O1018   2.080       .  S
O1017      C1024   1.280       .  A
C1019      O1023   1.276       .  A
C1019      C1501   1.495       .  S
C1020      C1661   1.500       .  S
C1024      C1533   1.490       .  S
C1025      O1026   1.279       .  A
C1025      C1638   1.481       .  S
C1027      C1028   1.533       .  S
C1027      C1033   1.532       .  S
C1027      C1031   1.546       .  S
C1027      C1469   1.555       .  S
C1028      H1035   1.086       .  S
C1028      C1029   1.368       .  D
C1029      C1030   1.555       .  S
C1029      C1597   1.508       .  S
C1030      C1034   1.552       .  S
C1030      C1032   1.563       .  S
C1030      H1036   1.100       .  S
C1031      H1037   1.070       .  S
C1031      C1032   1.373       .  D
C1032      C1044   1.517       .  S
C1033      H1038   1.087       .  S
C1033      C1034   1.363       .  D
C1034      C1574   1.505       .  S
C1039      C1040   1.531       .  S
C1039      C1045   1.542       .  S
C1039      C1043   1.555       .  S
C1039      C1734   1.556       .  S
C1040      H1047   1.085       .  S
C1040      C1041   1.358       .  D
C1041      C1042   1.549       .  S
C1041      C1542   1.503       .  S
C1042      C1046   1.548       .  S
C1042      C1044   1.558       .  S
C1042      H1048   1.090       .  S
C1043      H1049   1.079       .  S
C1043      C1044   1.372       .  D
C1045      H1050   1.085       .  S
C1045      C1046   1.378       .  D
C1046      C1510   1.519       .  S
O1051      C1067   1.275       .  A
O1051     Zn1057   2.020       .  S
C1052      O1068   1.275       .  A
C1052      O1065   1.277       .  A
C1052      C1350   1.489       .  S
O1053      C1066   1.275       .  A
O1053     Cd1060   2.079       .  S
O1054      C1072   1.275       .  A
O1054     Cd1063   2.081       .  S
O1055      C1069   1.277       .  A
O1055     Cd1059   2.084       .  S
O1056      C1067   1.277       .  A
O1056     Cd1059   2.096       .  S
Zn1057     O1068   2.036       .  S
Zn1057     O1070   2.014       .  S
Zn1057     O1062   1.955       .  S
O1058      C1069   1.278       .  A
O1058     Cd1063   2.088       .  S
Cd1059     O1061   2.097       .  S
Cd1059     O1062   2.014       .  S
Cd1060     O1064   2.095       .  S
Cd1060     O1073   2.092       .  S
Cd1060     O1062   2.016       .  S
O1061      C1071   1.279       .  A
O1062     Cd1063   2.014       .  S
Cd1063     O1065   2.091       .  S
O1064      C1071   1.277       .  A
C1066      O1070   1.273       .  A
C1066      C1446   1.473       .  S
C1067      C1693   1.488       .  S
C1069      C1373   1.494       .  S
C1071      C1414   1.493       .  S
C1072      O1073   1.278       .  A
C1072      C1318   1.480       .  S
C1074      C1075   1.532       .  S
C1074      C1080   1.532       .  S
C1074      C1078   1.544       .  S
C1074      C1437   1.543       .  S
C1075      H1082   1.087       .  S
C1075      C1076   1.365       .  D
C1076      C1077   1.539       .  S
C1076      C1894   1.478       .  S
C1077      C1081   1.550       .  S
C1077      C1079   1.547       .  S
C1077      H1083   1.111       .  S
C1078      H1084   1.081       .  S
C1078      C1079   1.369       .  D
C1079      C1091   1.492       .  S
C1080      H1085   1.086       .  S
C1080      C1081   1.361       .  D
C1081      C1405   1.487       .  S
C1086      C1087   1.530       .  S
C1086      C1092   1.541       .  S
C1086      C1090   1.544       .  S
C1086      C1277   1.550       .  S
C1087      H1094   1.085       .  S
C1087      C1088   1.362       .  D
C1088      C1089   1.550       .  S
C1088      C1382   1.494       .  S
C1089      C1093   1.554       .  S
C1089      C1091   1.552       .  S
C1089      H1095   1.110       .  S
C1090      H1096   1.083       .  S
C1090      C1091   1.365       .  D
C1092      H1097   1.086       .  S
C1092      C1093   1.371       .  D
C1093      C1341   1.503       .  S
O1098      C1114   1.277       .  A
O1098     Zn1104   2.047       .  S
C1099      O1115   1.280       .  A
C1099      O1112   1.272       .  A
C1099      C1478   1.507       .  S
O1100      C1113   1.277       .  A
O1100     Cd1107   2.089       .  S
O1101      C1119   1.274       .  A
O1101     Cd1110   2.078       .  S
O1102      C1116   1.278       .  A
O1102     Cd1106   2.098       .  S
O1103      C1114   1.280       .  A
O1103     Cd1106   2.101       .  S
Zn1104     O1115   2.055       .  S
Zn1104     O1117   2.053       .  S
Zn1104     O1109   1.961       .  S
O1105      C1116   1.275       .  A
O1105     Cd1110   2.081       .  S
Cd1106     O1108   2.086       .  S
Cd1106     O1109   2.018       .  S
Cd1107     O1111   2.073       .  S
Cd1107     O1120   2.093       .  S
Cd1107     O1109   2.015       .  S
O1108      C1118   1.277       .  A
O1109     Cd1110   2.002       .  S
Cd1110     O1112   2.064       .  S
O1111      C1118   1.275       .  A
C1113      O1117   1.278       .  A
C1113      C1245   1.496       .  S
C1114      C1181   1.510       .  S
C1116      C1149   1.486       .  S
C1118      C1286   1.475       .  S
C1119      O1120   1.277       .  A
C1119      C1222   1.493       .  S
C1121      C1122   1.547       .  S
C1121      C1127   1.530       .  S
C1121      C1125   1.531       .  S
C1121      C1213   1.554       .  S
C1122      H1129   1.083       .  S
C1122      C1123   1.372       .  D
C1123      C1124   1.560       .  S
C1123      C1629   1.509       .  S
C1124      C1128   1.550       .  S
C1124      C1126   1.559       .  S
C1124      H1130   1.107       .  S
C1125      H1131   1.078       .  S
C1125      C1126   1.366       .  D
C1126      C1138   1.502       .  S
C1127      H1132   1.087       .  S
C1127      C1128   1.360       .  D
C1128      C1254   1.493       .  S
C1133      C1134   1.531       .  S
C1133      C1139   1.536       .  S
C1133      C1137   1.556       .  S
C1133      C1309   1.557       .  S
C1134      H1141   1.087       .  S
C1134      C1135   1.361       .  D
C1135      C1136   1.549       .  S
C1135      C1190   1.490       .  S
C1136      C1140   1.552       .  S
C1136      C1138   1.547       .  S
C1136      H1142   1.102       .  S
C1137      H1143   1.081       .  S
C1137      C1138   1.374       .  D
C1139      H1144   1.085       .  S
C1139      C1140   1.368       .  D
C1140      C1158   1.503       .  S
C1145      C1146   1.404       .  A
C1145      C1150   1.412       .  A
C1145      H1155   1.083       .  S
C1146      C1151   1.493       .  S
C1146      C1147   1.419       .  A
C1147      C1152   1.520       .  S
C1147      C1148   1.411       .  A
C1148      C1149   1.403       .  A
C1148      H1153   1.083       .  S
C1149      C1150   1.417       .  A
C1150      C1154   1.517       .  S
C1151      C1156   1.417       .  A
C1151      C1160   1.399       .  A
C1152      F1168   1.383       .  S
C1152      F1169   1.382       .  S
C1152      F1170   1.385       .  S
C1154      F1165   1.382       .  S
C1154      F1166   1.384       .  S
C1154      F1167   1.384       .  S
C1156      C1161   1.517       .  S
C1156      C1157   1.414       .  A
C1157      C1158   1.407       .  A
C1157      H1162   1.082       .  S
C1158      C1159   1.425       .  A
C1159      C1163   1.517       .  S
C1159      C1160   1.406       .  A
C1160      H1164   1.085       .  S
C1161      F1174   1.384       .  S
C1161      F1175   1.383       .  S
C1161      F1176   1.382       .  S
C1163      F1171   1.384       .  S
C1163      F1172   1.378       .  S
C1163      F1173   1.383       .  S
C1177      C3090   1.400       .  A
C1177      C1182   1.414       .  A
C1177      H1187   1.083       .  S
C1178      C1183   1.491       .  S
C1178      C3089   1.400       .  A
C1178      C3091   1.416   1_545  A
C1179      C3096   1.521       .  S
C1179      C3090   1.416       .  A
C1179      C1180   1.413       .  A
C1180      C1181   1.412       .  A
C1180      H1185   1.082       .  S
C1181      C1182   1.430       .  A
C1182      C1186   1.520       .  S
C1183      C1188   1.418       .  A
C1183      C1192   1.399       .  A
C1184      C3091   1.520       .  S
C1184      F1200   1.382   1_565  S
C1184      F1201   1.382       .  S
C1184      F1202   1.385       .  S
C1186      F1197   1.385       .  S
C1186      F1198   1.383       .  S
C1186      F1199   1.384       .  S
C1188      C3105   1.517       .  S
C1188      C1189   1.413       .  A
C1189      C1190   1.405       .  A
C1189      H1194   1.083       .  S
C1190      C1191   1.422       .  A
C1191      C1195   1.514       .  S
C1191      C1192   1.404       .  A
C1192      H1196   1.085       .  S
C1193      C3100   1.517       .  S
C1193      F1206   1.385       .  S
C1193      F1207   1.382       .  S
C1193      F1208   1.382       .  S
C1195      F1203   1.384       .  S
C1195      F1204   1.376       .  S
C1195      F1205   1.383       .  S
C1209      C1214   1.413       .  A
C1209      H1219   1.084       .  S
C1210      C1215   1.492       .  S
C1210      C1211   1.412       .  A
C1211      C1216   1.520       .  S
C1212      C1213   1.416       .  A
C1212      H1217   1.076       .  S
C1213      C1214   1.441       .  A
C1214      C1218   1.528       .  S
C1215      C1220   1.415       .  A
C1215      C1224   1.402       .  A
C1216      F1232   1.382       .  S
C1216      F1233   1.382       .  S
C1216      F1234   1.385       .  S
C1218      F1229   1.382       .  S
C1218      F1230   1.385       .  S
C1218      F1231   1.378       .  S
C1220      C1221   1.411       .  A
C1221      C1222   1.407       .  A
C1221      H1226   1.083       .  S
C1222      C1223   1.423       .  A
C1223      C1227   1.520       .  S
C1223      C1224   1.411       .  A
C1224      H1228   1.083       .  S
C1225      F1238   1.384       .  S
C1225      F1239   1.382       .  S
C1225      F1240   1.383       .  S
C1227      F1235   1.385       .  S
C1227      F1236   1.384       .  S
C1227      F1237   1.382       .  S
C1241      C1242   1.404   1_545  A
C1241      C3158   1.412   1_545  A
C1241      H1251   1.083       .  S
C1242      C1247   1.498   1_565  S
C1242      C3155   1.417       .  A
C1243      C1248   1.519       .  S
C1243      C3154   1.417       .  A
C1243      C1244   1.413       .  A
C1244      C1245   1.408       .  A
C1244      H1249   1.083       .  S
C1245      C1246   1.421       .  A
C1246      C1250   1.519       .  S
C1246      C3153   1.412       .  A
C1247      C1252   1.419       .  A
C1248      F3177   1.381   1_556  S
C1248      F1266   1.384       .  S
C1250      F3173   1.384       .  S
C1250      F1262   1.385       .  S
C1250      F1263   1.382       .  S
C1252      C1257   1.517       .  S
C1252      C1253   1.413       .  A
C1253      H1258   1.084   1_556  S
C1254      C1255   1.417       .  A
C1255      C1259   1.511       .  S
C1255      C1256   1.408       .  A
C1256      H1260   1.083       .  S
C1257      F1270   1.385       .  S
C1257      F1271   1.382       .  S
C1257      F1272   1.382   1_545  S
C1259      F1267   1.385       .  S
C1259      F1268   1.381       .  S
C1259      F1269   1.382       .  S
F1261      C3162   1.384       .  S
F1265      C3160   1.382   1_554  S
C1273      C1274   1.394       .  A
C1273      C1278   1.407       .  A
C1273      H1283   1.085       .  S
C1274      C1279   1.486       .  S
C1274      C1275   1.409       .  A
C1275      C1280   1.521       .  S
C1275      C1276   1.407       .  A
C1276      C1277   1.419       .  A
C1276      H1281   1.075       .  S
C1277      C1278   1.439       .  A
C1278      C1282   1.524       .  S
C1279      C1284   1.416       .  A
C1279      C1288   1.403       .  A
C1280      F1296   1.382       .  S
C1280      F1297   1.382       .  S
C1280      F1298   1.385       .  S
C1282      F1293   1.383       .  S
C1282      F1294   1.385       .  S
C1282      F1295   1.370       .  S
C1284      C1289   1.519       .  S
C1284      C1285   1.409       .  A
C1285      C1286   1.403       .  A
C1285      H1290   1.083       .  S
C1286      C1287   1.414       .  A
C1287      C1291   1.518       .  S
C1287      C1288   1.406       .  A
C1288      H1292   1.083       .  S
C1289      F1302   1.384       .  S
C1289      F1303   1.383       .  S
C1289      F1304   1.382       .  S
C1291      F1299   1.383       .  S
C1291      F1300   1.383       .  S
C1291      F1301   1.384       .  S
C1305      C1306   1.392       .  A
C1305      C1310   1.406       .  A
C1305      H1315   1.086       .  S
C1306      C1311   1.493       .  S
C1306      C1307   1.411       .  A
C1307      C1312   1.520       .  S
C1307      C1308   1.413       .  A
C1308      C1309   1.420       .  A
C1308      H1313   1.072       .  S
C1309      C1310   1.443       .  A
C1310      C1314   1.525       .  S
C1311      C1316   1.420       .  A
C1311      C1320   1.404       .  A
C1312      F1328   1.382       .  S
C1312      F1329   1.382       .  S
C1312      F1330   1.385       .  S
C1314      F1325   1.384       .  S
C1314      F1326   1.367       .  S
C1314      F1327   1.384       .  S
C1316      C1321   1.520       .  S
C1316      C1317   1.411       .  A
C1317      C1318   1.402       .  A
C1317      H1322   1.083       .  S
C1318      C1319   1.414       .  A
C1319      C1323   1.517       .  S
C1319      C1320   1.409       .  A
C1320      H1324   1.083       .  S
C1321      F1334   1.384       .  S
C1321      F1335   1.382       .  S
C1321      F1336   1.382       .  S
C1323      F1331   1.383       .  S
C1323      F1332   1.384       .  S
C1323      F1333   1.384       .  S
C1337      C1338   1.401       .  A
C1337      C1342   1.408       .  A
C1337      H1347   1.085       .  S
C1338      C1343   1.501       .  S
C1338      C1339   1.420       .  A
C1339      C1340   1.416       .  A
C1340      C1341   1.406       .  A
C1340      H1345   1.081       .  S
C1341      C1342   1.422       .  A
C1342      C1346   1.515       .  S
C1343      C1352   1.404       .  A
C1344      F1360   1.382       .  S
C1344      F1361   1.382       .  S
C1344      F1362   1.385       .  S
C1346      F1357   1.382       .  S
C1346      F1358   1.384       .  S
C1346      F1359   1.378       .  S
C1348      C1353   1.521       .  S
C1348      C1349   1.409       .  A
C1349      C1350   1.404       .  A
C1349      H1354   1.083       .  S
C1350      C1351   1.419       .  A
C1351      C1355   1.518       .  S
C1352      H1356   1.083       .  S
C1353      F1366   1.384       .  S
C1353      F1368   1.382       .  S
C1355      F1364   1.384       .  S
C1355      F1365   1.382       .  S
C1369      C3286   1.410       .  A
C1370      C1375   1.492       .  S
C1370      C3283   1.416       .  A
C1371      C3288   1.520       .  S
C1371      C3282   1.416   1_545  A
C1372      C1373   1.407       .  A
C1372      H1377   1.083       .  S
C1373      C1374   1.422       .  A
C1374      C1378   1.519       .  S
C1374      C3281   1.410   1_545  A
C1375      C1380   1.417       .  A
C1375      C1384   1.397       .  A
C1376      C3283   1.521       .  S
C1376      F1392   1.382       .  S
C1376      F1393   1.382       .  S
C1376      F3306   1.385       .  S
C1378      F1389   1.385       .  S
C1378      F3302   1.382       .  S
C1378      F1391   1.384       .  S
C1380      C1385   1.517       .  S
C1380      C1381   1.415       .  A
C1381      C1382   1.406       .  A
C1381      H1386   1.083       .  S
C1382      C1383   1.423       .  A
C1383      C1387   1.517       .  S
C1383      C1384   1.404       .  A
C1385      F1398   1.385       .  S
C1385      F1399   1.382       .  S
C1385      F3312   1.382       .  S
C1387      F1395   1.385       .  S
C1387      F1396   1.378       .  S
C1387      F1397   1.381       .  S
F1390      C3290   1.382       .  S
F1394      C3288   1.384       .  S
F1400      C3297   1.382   1_545  S
C1401      C1402   1.405       .  A
C1401      C1406   1.411       .  A
C1401      H1411   1.083       .  S
C1402      C1407   1.492       .  S
C1402      C1403   1.417       .  A
C1403      C1408   1.520       .  S
C1403      C1404   1.409       .  A
C1404      C1405   1.405       .  A
C1404      H1409   1.082       .  S
C1405      C1406   1.414       .  A
C1406      C1410   1.515       .  S
C1407      C1412   1.418       .  A
C1407      C3328   1.403       .  A
C1408      F1424   1.382       .  S
C1408      F1425   1.382       .  S
C1408      F1426   1.385       .  S
C1410      F1421   1.383       .  S
C1410      F1422   1.384       .  S
C1410      F1423   1.383       .  S
C1412      C1417   1.520       .  S
C1412      C3325   1.409       .  A
C1413      C3324   1.411   1_545  A
C1413      C1414   1.404       .  A
C1413      H1418   1.083       .  S
C1414      C1415   1.422       .  A
C1415      C1419   1.517       .  S
C1415      C1416   1.415       .  A
C1416      C3319   1.403   1_545  A
C1416      H1420   1.083       .  S
C1417      F1430   1.385       .  S
C1417      F1431   1.382       .  S
C1417      F1432   1.382       .  S
C1419      F1427   1.383       .  S
C1419      F1428   1.383       .  S
C1419      F1429   1.385       .  S
C1433      C1434   1.396       .  A
C1433      C1438   1.406       .  A
C1433      H1443   1.085       .  S
C1434      C1439   1.482       .  S
C1434      C1435   1.411       .  A
C1435      C1440   1.522       .  S
C1435      C1436   1.406       .  A
C1436      C1437   1.415       .  A
C1436      H1441   1.076       .  S
C1437      C1438   1.436       .  A
C1438      C1442   1.526       .  S
C1439      C1444   1.415       .  A
C1439      C1448   1.402       .  A
C1440      F1456   1.382       .  S
C1440      F1457   1.381       .  S
C1440      F1458   1.385       .  S
C1442      F1453   1.383       .  S
C1442      F1454   1.385       .  S
C1442      F1455   1.376       .  S
C1444      C1449   1.519       .  S
C1444      C1445   1.408       .  A
C1445      C1446   1.403       .  A
C1445      H1450   1.083       .  S
C1446      C1447   1.415       .  A
C1447      C1451   1.518       .  S
C1447      C1448   1.405       .  A
C1448      H1452   1.083       .  S
C1449      F1462   1.385       .  S
C1449      F1463   1.383       .  S
C1449      F1464   1.381       .  S
C1451      F1459   1.383       .  S
C1451      F1460   1.382       .  S
C1451      F1461   1.385       .  S
C1465      C1466   1.394       .  A
C1465      C1470   1.407       .  A
C1465      H1475   1.085       .  S
C1466      C1471   1.489   1_655  S
C1466      C1467   1.409       .  A
C1467      C1472   1.521       .  S
C1467      C1468   1.410       .  A
C1468      C1469   1.420       .  A
C1468      H1473   1.071       .  S
C1469      C1470   1.442       .  A
C1470      C1474   1.528       .  S
C1471      C1476   1.414       .  A
C1471      C1480   1.397       .  A
C1472      F1488   1.382       .  S
C1472      F1489   1.381       .  S
C1472      F1490   1.385       .  S
C1474      F1485   1.385       .  S
C1474      F1486   1.383       .  S
C1474      F1487   1.373       .  S
C1476      C1481   1.521       .  S
C1476      C1477   1.410       .  A
C1477      C1478   1.413       .  A
C1477      H1482   1.082       .  S
C1478      C1479   1.433       .  A
C1479      C1483   1.523       .  S
C1479      C1480   1.410       .  A
C1480      H1484   1.083       .  S
C1481      F1494   1.384       .  S
C1481      F1495   1.382       .  S
C1481      F1496   1.381   1_455  S
C1483      F1491   1.384       .  S
C1483      F1492   1.383       .  S
C1483      F1493   1.385       .  S
C1497      C1498   1.401       .  A
C1497      C1502   1.409       .  A
C1497      H3419   1.083       .  S
C1498      C3415   1.492   1_545  S
C1498      C1499   1.416       .  A
C1499      C1504   1.518       .  S
C1499      C1500   1.413       .  A
C1500      C1501   1.408       .  A
C1500      H1505   1.083       .  S
C1501      C1502   1.422       .  A
C1502      C1506   1.518       .  S
C1503      C3410   1.493       .  S
C1503      C1508   1.413       .  A
C1503      C1512   1.398       .  A
C1504      F1520   1.382   1_545  S
C1504      F1521   1.382       .  S
C1504      F1522   1.384       .  S
C1506      F1517   1.385       .  S
C1506      F1518   1.382       .  S
C1506      F1519   1.383       .  S
H1507      C3409   1.083       .  S
C1508      C3425   1.520       .  S
C1508      C1509   1.409       .  A
C1509      C1510   1.414       .  A
C1509      H1514   1.082       .  S
C1510      C1511   1.432       .  A
C1511      C1515   1.520       .  S
C1511      C1512   1.412       .  A
C1512      H1516   1.083       .  S
C1513      C3420   1.518   1_545  S
C1513      F1526   1.385       .  S
C1513      F1527   1.382       .  S
C1513      F1528   1.382       .  S
C1515      F1523   1.385       .  S
C1515      F1524   1.373       .  S
C1515      F1525   1.382       .  S
C1529      C1530   1.407       .  A
C1529      C1534   1.416       .  A
C1529      H1539   1.082       .  S
C1530      C1535   1.502       .  S
C1530      C1531   1.421       .  A
C1531      C1536   1.521       .  S
C1531      C1532   1.411       .  A
C1532      C1533   1.402       .  A
C1532      H1537   1.083       .  S
C1533      C1534   1.417       .  A
C1534      C1538   1.516       .  S
C1535      C1540   1.419       .  A
C1535      C1544   1.400       .  A
C1536      F1552   1.382       .  S
C1536      F1553   1.383       .  S
C1536      F1554   1.384       .  S
C1538      F1549   1.383       .  S
C1538      F1550   1.384       .  S
C1538      F1551   1.383       .  S
C1540      C1545   1.516       .  S
C1540      C1541   1.417       .  A
C1541      C1542   1.406       .  A
C1541      H1546   1.083       .  S
C1542      C1543   1.426       .  A
C1543      C1547   1.520       .  S
C1543      C1544   1.409       .  A
C1544      H1548   1.083       .  S
C1545      F1558   1.384       .  S
C1545      F1559   1.382       .  S
C1545      F1560   1.383       .  S
C1547      F1555   1.385       .  S
C1547      F1556   1.380       .  S
C1547      F1557   1.381       .  S
C1561      C1562   1.403       .  A
C1561      H3483   1.083       .  S
C1562      C3479   1.499   1_545  S
C1562      C1563   1.416       .  A
C1563      C1568   1.519       .  S
C1563      C1564   1.413   1_556  A
C1564      C1565   1.409       .  A
C1564      H1569   1.083       .  S
C1566      C1570   1.520       .  S
C1567      C3474   1.497       .  S
C1567      C1572   1.417       .  A
C1567      C1576   1.401       .  A
C1568      F1584   1.382   1_545  S
C1568      F1585   1.382       .  S
C1568      F1586   1.384       .  S
C1570      F1581   1.382       .  S
C1570      F1582   1.385       .  S
C1570      F1583   1.384       .  S
H1571      C3473   1.083       .  S
C1572      C3489   1.519       .  S
C1572      C1573   1.413       .  A
C1573      C1574   1.408       .  A
C1573      H1578   1.083       .  S
C1574      C1575   1.423       .  A
C1575      C1579   1.514       .  S
C1575      C1576   1.412       .  A
C1576      H1580   1.083       .  S
C1577      C3484   1.519   1_545  S
C1577      F3502   1.384       .  S
C1577      F1591   1.382       .  S
C1577      F1592   1.382       .  S
C1579      F1587   1.385       .  S
C1579      F1588   1.379       .  S
C1579      F1589   1.380       .  S
F1590      C3489   1.385       .  S
C1593      C1594   1.405       .  A
C1593      C1598   1.416       .  A
C1593      H1603   1.083       .  S
C1594      C1599   1.492       .  S
C1594      C1595   1.413       .  A
C1595      C1600   1.522       .  S
C1595      C1596   1.404       .  A
C1596      C1597   1.411       .  A
C1596      H1601   1.080       .  S
C1597      C1598   1.423       .  A
C1598      C1602   1.517       .  S
C1599      C1604   1.413   1_556  A
C1599      C1608   1.400       .  A
C1600      F1616   1.382       .  S
C1600      F1617   1.381   1_556  S
C1600      F1618   1.385       .  S
C1602      F1613   1.380       .  S
C1602      F1614   1.385       .  S
C1602      F1615   1.383       .  S
C1604      C1609   1.520       .  S
C1605      H1610   1.082       .  S
C1606      C1607   1.430   1_554  A
C1607      C1611   1.521       .  S
C1607      C1608   1.412       .  A
C1608      H1612   1.083       .  S
C1609      F1623   1.382   1_554  S
C1609      F1624   1.382       .  S
C1611      F1619   1.385       .  S
C1611      F1620   1.383       .  S
C1611      F1621   1.383       .  S
C1625      C1626   1.404       .  A
C1625      C1630   1.416       .  A
C1625      H1635   1.083       .  S
C1626      C1631   1.495       .  S
C1626      C1627   1.415       .  A
C1627      C1632   1.521       .  S
C1627      C1628   1.407       .  A
C1628      C1629   1.409       .  A
C1628      H1633   1.080       .  S
C1629      C1630   1.421       .  A
C1630      C1634   1.511       .  S
C1631      C1636   1.418   1_455  A
C1631      C1640   1.404   1_455  A
C1632      F1648   1.382       .  S
C1632      F1649   1.382       .  S
C1632      F1650   1.385       .  S
C1634      F1645   1.380       .  S
C1634      F1646   1.385       .  S
C1634      F1647   1.382       .  S
C1636      C1641   1.518   1_655  S
C1636      C1637   1.413       .  A
C1637      C1638   1.404       .  A
C1637      H1642   1.083       .  S
C1638      C1639   1.414       .  A
C1639      C1643   1.517       .  S
C1639      C1640   1.409       .  A
C1640      H1644   1.083   1_655  S
C1641      F1654   1.385   1_455  S
C1641      F1655   1.382       .  S
C1641      F1656   1.382       .  S
C1643      F1651   1.384       .  S
C1643      F1652   1.383       .  S
C1643      F1653   1.383       .  S
C1657      C1658   1.398       .  A
C1657      C1662   1.408       .  A
C1657      H1667   1.083       .  S
C1658      C1663   1.485       .  S
C1658      C1659   1.413       .  A
C1659      C1660   1.408       .  A
C1660      C1661   1.411       .  A
C1660      H1665   1.082       .  S
C1661      C1662   1.427       .  A
C1662      C1666   1.518       .  S
C1663      C1668   1.410       .  A
C1663      C1672   1.397       .  A
C1664      F1680   1.382       .  S
C1664      F1681   1.382       .  S
C1664      F1682   1.384       .  S
C1666      F1677   1.383       .  S
C1666      F1678   1.385       .  S
C1666      F1679   1.382       .  S
C1668      C1673   1.522       .  S
C1668      C1669   1.405       .  A
C1669      C1670   1.416       .  A
C1669      H1674   1.077       .  S
C1670      C1671   1.437       .  A
C1671      C1675   1.524       .  S
C1671      C1672   1.409       .  A
C1672      H1676   1.085       .  S
C1673      F1686   1.384       .  S
C1673      F1687   1.382       .  S
C1673      F1688   1.382       .  S
C1675      F1683   1.383       .  S
C1675      F1684   1.375       .  S
C1675      F1685   1.385       .  S
C1689      C1690   1.405       .  A
C1689      C1694   1.414       .  A
C1689      H1699   1.082       .  S
C1690      C1695   1.493       .  S
C1690      C1691   1.418       .  A
C1691      C1696   1.521       .  S
C1691      C1692   1.407       .  A
C1692      C1693   1.404       .  A
C1692      H1697   1.083       .  S
C1693      C1694   1.419       .  A
C1694      C1698   1.517       .  S
C1695      C1700   1.418       .  A
C1695      C1704   1.403       .  A
C1696      F1712   1.382       .  S
C1696      F1713   1.383       .  S
C1696      F1714   1.384       .  S
C1698      F1709   1.383       .  S
C1698      F1710   1.384       .  S
C1698      F1711   1.383       .  S
C1700      C1705   1.518       .  S
C1700      C1701   1.410       .  A
C1701      C1702   1.405       .  A
C1701      H1706   1.082       .  S
C1702      C1703   1.418       .  A
C1703      C1707   1.517       .  S
C1703      C1704   1.407       .  A
C1704      H1708   1.084       .  S
C1705      F1718   1.385       .  S
C1705      F1719   1.382       .  S
C1705      F1720   1.383       .  S
C1707      F1715   1.384       .  S
C1707      F1716   1.382       .  S
C1707      F1717   1.383       .  S
C1721      C1722   1.404       .  A
C1721      C1726   1.408       .  A
C1721      H1731   1.083       .  S
C1722      C1727   1.490       .  S
C1722      C1723   1.418       .  A
C1723      C1728   1.519       .  S
C1723      C1724   1.410       .  A
C1724      C1725   1.402       .  A
C1724      H1729   1.083       .  S
C1725      C1726   1.415       .  A
C1726      C1730   1.518       .  S
C1727      C1732   1.410       .  A
C1727      C1736   1.392       .  A
C1728      F1744   1.382       .  S
C1728      F1745   1.382       .  S
C1728      F1746   1.384       .  S
C1730      F1741   1.384       .  S
C1730      F1742   1.382       .  S
C1730      F1743   1.383       .  S
C1732      C1737   1.520       .  S
C1732      C1733   1.413       .  A
C1733      C1734   1.420       .  A
C1733      H1738   1.076       .  S
C1734      C1735   1.442       .  A
C1735      C1739   1.524       .  S
C1735      C1736   1.406       .  A
C1736      H1740   1.086       .  S
C1737      F1750   1.384       .  S
C1737      F1751   1.382       .  S
C1737      F1752   1.382       .  S
C1739      F1747   1.386       .  S
C1739      F1748   1.367       .  S
C1739      F1749   1.383       .  S
C1753      C1754   1.398       .  A
C1753      C1758   1.401       .  A
C1753      H1763   1.085       .  S
C1754      C1759   1.491       .  S
C1754      C1755   1.418   1_556  A
C1755      C1760   1.518       .  S
C1755      C1756   1.414       .  A
C1756      C1757   1.406       .  A
C1757      C1758   1.424   1_554  A
C1758      C1762   1.522       .  S
C1759      C3676   1.414       .  A
C1759      C1768   1.400   1_545  A
C1760      F1776   1.382   1_545  S
C1760      F3689   1.382       .  S
C1762      F1773   1.384       .  S
C1762      F1774   1.383       .  S
C1762      F1775   1.378       .  S
C1764      C1769   1.520       .  S
C1764      C3671   1.415       .  A
C1764      C1765   1.410       .  A
C1765      C1766   1.412       .  A
C1765      H1770   1.082       .  S
C1766      C1767   1.430       .  A
C1767      C1771   1.521       .  S
C1767      C3680   1.411       .  A
C1768      C3679   1.411       .  A
C1768      H1772   1.083       .  S
C1769      F1782   1.384       .  S
C1769      F3695   1.382       .  S
C1769      F1784   1.382       .  S
C1771      F3691   1.385       .  S
C1771      F1780   1.383       .  S
C1771      F1781   1.384       .  S
F1777      C3672   1.382       .  S
F1779      C3683   1.385       .  S
F1783      C3681   1.382       .  S
C1785      C1786   1.403   1_554  A
C1785      C1790   1.409       .  A
C1785      H1795   1.083       .  S
C1786      C1791   1.491       .  S
C1786      C1787   1.421       .  A
C1787      C1792   1.519       .  S
C1787      C1788   1.409   1_556  A
C1788      C1789   1.402       .  A
C1788      H1793   1.082   1_554  S
C1789      C1790   1.419       .  A
C1791      C1796   1.414       .  A
C1791      C1800   1.402       .  A
C1792      F1808   1.383       .  S
C1792      F1809   1.381       .  S
C1792      F1810   1.383       .  S
C1794      F1805   1.381       .  S
C1794      F1806   1.379       .  S
C1794      F1807   1.385       .  S
C1796      C1801   1.517       .  S
C1796      C1797   1.411       .  A
C1797      C1798   1.409       .  A
C1797      H1802   1.083       .  S
C1798      C1799   1.424       .  A
C1799      C1803   1.520       .  S
C1799      C1800   1.411       .  A
C1800      H1804   1.083       .  S
C1801      F1814   1.384       .  S
C1801      F1815   1.383       .  S
C1801      F1816   1.381       .  S
C1803      F1811   1.383       .  S
C1803      F1812   1.383       .  S
C1803      F1813   1.385       .  S
C1817      C3730   1.402       .  A
C1817      C1822   1.411       .  A
C1817      H3739   1.083       .  S
C1818      C1823   1.498       .  S
C1818      C3729   1.403   1_545  A
C1818      C3731   1.420       .  A
C1819      C3736   1.520       .  S
C1819      C3730   1.420       .  A
C1819      C1820   1.411       .  A
C1820      C1821   1.404       .  A
C1820      H1825   1.083       .  S
C1821      C1822   1.422       .  A
C1822      C1826   1.518       .  S
C1823      C1828   1.419       .  A
C1823      C1832   1.400       .  A
C1824      C3731   1.520       .  S
C1824      F1840   1.382       .  S
C1824      F1841   1.382       .  S
C1824      F3754   1.385       .  S
C1826      F1837   1.385       .  S
C1826      F1838   1.384       .  S
C1826      F1839   1.381       .  S
H1827      C3729   1.083       .  S
C1828      C3745   1.517       .  S
C1828      C1829   1.417       .  A
C1829      C1830   1.405       .  A
C1829      H1834   1.083       .  S
C1830      C1831   1.425       .  A
C1831      C1835   1.520       .  S
C1831      C1832   1.406       .  A
C1832      H1836   1.085       .  S
C1833      C3740   1.517       .  S
C1833      F1846   1.384       .  S
C1833      F1847   1.382       .  S
C1833      F1848   1.382       .  S
C1835      F1843   1.384       .  S
C1835      F1844   1.378       .  S
C1835      F1845   1.383       .  S
F1842      C3736   1.385       .  S
C1849      C1850   1.393       .  A
C1849      C1854   1.404       .  A
C1849      H1859   1.085       .  S
C1850      C1855   1.485       .  S
C1850      C1851   1.411       .  A
C1851      C1856   1.520       .  S
C1851      C1852   1.411       .  A
C1852      C1853   1.415       .  A
C1852      H1857   1.077       .  S
C1853      C1854   1.439       .  A
C1854      C1858   1.528       .  S
C1855      C1860   1.411       .  A
C1855      C1864   1.399       .  A
C1856      F1872   1.383       .  S
C1856      F1873   1.381       .  S
C1856      F1874   1.384       .  S
C1858      F1869   1.385       .  S
C1858      F1870   1.376       .  S
C1858      F1871   1.383       .  S
C1860      C1865   1.521       .  S
C1860      C1861   1.407       .  A
C1861      C1862   1.413       .  A
C1861      H1866   1.082       .  S
C1862      C1863   1.429       .  A
C1863      C1867   1.521       .  S
C1863      C1864   1.410       .  A
C1864      H1868   1.083       .  S
C1865      F1878   1.384       .  S
C1865      F1879   1.383       .  S
C1865      F1880   1.381       .  S
C1867      F1875   1.383       .  S
C1867      F1876   1.381       .  S
C1867      F1877   1.385       .  S
C1881      C1882   1.401       .  A
C1881      C1886   1.405       .  A
C1881      H1891   1.083       .  S
C1882      C1887   1.482       .  S
C1882      C1883   1.415       .  A
C1883      C1888   1.518       .  S
C1883      C1884   1.408       .  A
C1884      C1885   1.403       .  A
C1884      H1889   1.083       .  S
C1885      C1886   1.419       .  A
C1886      C1890   1.521       .  S
C1887      C1892   1.416       .  A
C1887      C1896   1.401       .  A
C1888      F1904   1.383       .  S
C1888      F1905   1.381       .  S
C1888      F1906   1.384       .  S
C1890      F1901   1.383       .  S
C1890      F1902   1.385       .  S
C1890      F1903   1.383       .  S
C1892      C1897   1.520       .  S
C1892      C1893   1.407       .  A
C1893      C1894   1.402       .  A
C1893      H1898   1.081       .  S
C1894      C1895   1.417       .  A
C1895      C1899   1.518       .  S
C1895      C1896   1.404       .  A
C1896      H1900   1.085       .  S
C1897      F1910   1.385       .  S
C1897      F1911   1.382       .  S
C1897      F1912   1.381       .  S
C1899      F1907   1.384       .  S
C1899      F1908   1.383       .  S
C1899      F1909   1.382       .  S
O1913      C1929   1.276       .  A
O1913     Zn1919   2.037       .  S
C1914      O1930   1.274       .  A
C1914      O1927   1.277       .  A
C1914      C2841   1.479       .  S
O1915      C1928   1.272       .  A
O1915     Cd1922   2.075       .  S
O1916      C1934   1.277       .  A
O1916     Cd1925   2.089       .  S
O1917      C1931   1.274       .  A
O1917     Cd1921   2.080       .  S
O1918      C1929   1.275       .  A
O1918     Cd1921   2.083       .  S
Zn1919     O1930   2.016       .  S
Zn1919     O1932   2.019       .  S
Zn1919     O1924   1.952       .  S
O1920      C1931   1.279       .  A
O1920     Cd1925   2.087       .  S
Cd1921     O1923   2.083       .  S
Cd1921     O1924   2.005       .  S
Cd1922     O1926   2.073       .  S
Cd1922     O1935   2.085       .  S
Cd1922     O1924   2.008       .  S
O1923      C1933   1.276       .  A
O1924     Cd1925   2.011       .  S
Cd1925     O1927   2.086       .  S
O1926      C1933   1.275       .  A
C1928      O1932   1.275       .  A
C1928      C2818   1.502       .  S
C1929      C2754   1.489       .  S
C1931      C2722   1.506       .  S
C1933      C2681   1.477       .  S
C1934      O1935   1.276       .  A
C1934      C2777   1.487       .  S
C1936      C1937   1.531       .  S
C1936      C1942   1.551       .  S
C1936      C1940   1.527       .  S
C1936      C2809   1.544       .  S
C1937      H1944   1.084       .  S
C1937      C1938   1.362       .  D
C1938      C1939   1.550       .  S
C1938      C2786   1.487       .  S
C1939      C1943   1.539       .  S
C1939      C1941   1.543       .  S
C1939      H1945   1.110       .  S
C1940      H1946   1.086       .  S
C1940      C1941   1.362       .  D
C1941      C1953   1.484       .  S
C1942      H1947   1.083       .  S
C1942      C1943   1.374       .  D
C1943      C2658   1.488       .  S
C1948      C1949   1.534       .  S
C1948      C1954   1.547       .  S
C1948      C1952   1.534       .  S
C1948      C2626   1.544       .  S
C1949      H1956   1.086       .  S
C1949      C1950   1.362       .  D
C1950      C1951   1.547       .  S
C1950      C3701   1.494       .  S
C1951      C1955   1.544       .  S
C1951      C1953   1.551       .  S
C1951      H1957   1.111       .  S
C1952      H1958   1.084       .  S
C1952      C1953   1.366       .  D
C1954      H1959   1.084       .  S
C1954      C1955   1.365       .  D
C1955      C3669   1.488       .  S
O1960      C1976   1.274       .  A
O1960     Zn1966   2.034       .  S
C1961      O1977   1.277       .  A
C1961      O1974   1.275       .  A
C1961      C3477   1.495       .  S
O1962      C1975   1.278       .  A
O1962     Cd1969   2.096       .  S
O1963      C1981   1.277       .  A
O1963     Cd1972   2.084       .  S
O1964      C1978   1.278       .  A
O1964     Cd1968   2.089       .  S
O1965      C1976   1.275       .  A
O1965     Cd1968   2.072       .  S
Zn1966     O1977   2.050       .  S
Zn1966     O1979   2.038       .  S
Zn1966     O1971   1.960       .  S
O1967      C1978   1.276       .  A
O1967     Cd1972   2.092       .  S
Cd1968     O1970   2.081       .  S
Cd1968     O1971   2.013       .  S
Cd1969     O1973   2.108       .  S
Cd1969     O1982   2.103       .  S
Cd1969     O1971   2.026       .  S
O1970      C1980   1.276       .  A
O1971     Cd1972   2.007       .  S
Cd1972     O1974   2.083       .  S
O1973      C1980   1.280       .  A
C1975      O1979   1.276       .  A
C1975      C2457   1.497       .  S
C1976      C2617   1.496       .  S
C1978      C3518   1.507       .  S
C1980      C2489   1.486       .  S
C1981      O1982   1.279       .  A
C1981      C2594   1.484       .  S
C1983      C1984   1.533       .  S
C1983      C1989   1.533       .  S
C1983      C1987   1.544       .  S
C1983      C2425   1.550       .  S
C1984      H1991   1.087       .  S
C1984      C1985   1.368       .  D
C1985      C1986   1.550       .  S
C1985      C2553   1.505       .  S
C1986      C1990   1.551       .  S
C1986      C1988   1.559       .  S
C1986      H1992   1.100       .  S
C1987      H1993   1.075       .  S
C1987      C1988   1.369       .  D
C1988      C2000   1.508       .  S
C1989      H1994   1.087       .  S
C1989      C1990   1.365       .  D
C1990      C2530   1.502       .  S
C1995      C1996   1.533       .  S
C1995      C2001   1.543       .  S
C1995      C1999   1.552       .  S
C1995      C2690   1.557       .  S
C1996      H2003   1.086       .  S
C1996      C1997   1.359       .  D
C1997      C1998   1.546       .  S
C1997      C2498   1.497       .  S
C1998      C2002   1.548       .  S
C1998      C2000   1.554       .  S
C1998      H2004   1.095       .  S
C1999      H2005   1.081       .  S
C1999      C2000   1.368       .  D
C2001      H2006   1.080       .  S
C2001      C2002   1.379       .  D
C2002      C2466   1.518       .  S
O2007      C2023   1.275       .  A
O2007     Zn2013   2.027       .  S
C2008      O2024   1.277       .  A
C2008      O2021   1.278       .  A
C2008      C2306   1.494   1_554  S
O2009      C2022   1.276       .  A
O2009     Cd2016   2.085       .  S
O2010      C2028   1.277       .  A
O2010     Cd2019   2.089       .  S
O2011      C2025   1.274       .  A
O2011     Cd2015   2.080       .  S
O2012      C2023   1.274       .  A
O2012     Cd2015   2.078       .  S
Zn2013     O2024   2.048       .  S
Zn2013     O2026   2.030       .  S
Zn2013     O2018   1.962       .  S
O2014      C2025   1.280       .  A
O2014     Cd2019   2.096       .  S
Cd2015     O2017   2.086       .  S
Cd2015     O2018   2.013       .  S
Cd2016     O2020   2.103       .  S
Cd2016     O2029   2.096       .  S
Cd2016     O2018   2.018       .  S
O2017      C2027   1.276       .  A
O2018     Cd2019   2.013       .  S
Cd2019     O2021   2.094       .  S
O2020      C2027   1.278       .  A
C2022      O2026   1.275       .  A
C2022      C2402   1.477       .  S
C2023      C2649   1.480       .  S
C2025      C2329   1.505       .  S
C2027      C2370   1.490       .  S
C2028      O2029   1.279       .  A
C2028      C2274   1.490       .  S
C2030      C2031   1.533       .  S
C2030      C2036   1.537       .  S
C2030      C2034   1.546       .  S
C2030      C2393   1.550       .  S
C2031      H2038   1.087       .  S
C2031      C2032   1.366       .  D
C2032      C2033   1.544       .  S
C2032      C2850   1.486       .  S
C2033      C2037   1.548       .  S
C2033      C2035   1.548       .  S
C2033      H2039   1.111       .  S
C2034      H2040   1.080       .  S
C2034      C2035   1.367       .  D
C2035      C2047   1.492       .  S
C2036      H2041   1.086       .  S
C2036      C2037   1.364       .  D
C2037      C2361   1.490       .  S
C2042      C2043   1.532       .  S
C2042      C2048   1.538       .  S
C2042      C2046   1.549       .  S
C2042      C2233   1.552       .  S
C2043      H2050   1.087       .  S
C2043      C2044   1.363       .  D
C2044      C2045   1.547       .  S
C2044      C2338   1.490       .  S
C2045      C2049   1.552       .  S
C2045      C2047   1.545       .  S
C2045      H2051   1.110       .  S
C2046      H2052   1.082       .  S
C2046      C2047   1.368       .  D
C2048      H2053   1.084       .  S
C2048      C2049   1.370       .  D
C2049      C2297   1.498       .  S
O2054      C2070   1.277       .  A
O2054     Zn2060   2.048       .  S
C2055      O2071   1.278       .  A
C2055      O2068   1.272       .  A
C2055      C2434   1.504       .  S
O2056      C2069   1.276       .  A
O2056     Cd2063   2.087       .  S
O2057      C2075   1.274       .  A
O2057     Cd2066   2.077       .  S
O2058      C2072   1.277       .  A
O2058     Cd2062   2.095       .  S
O2059      C2070   1.279       .  A
O2059     Cd2062   2.092       .  S
Zn2060     O2071   2.044       .  S
Zn2060     O2073   2.049       .  S
Zn2060     O2065   1.961       .  S
O2061      C2072   1.274       .  A
O2061     Cd2066   2.080       .  S
Cd2062     O2064   2.081       .  S
Cd2062     O2065   2.012       .  S
Cd2063     O2067   2.075       .  S
Cd2063     O2076   2.088       .  S
Cd2063     O2065   2.014       .  S
O2064      C2074   1.276       .  A
O2065     Cd2066   2.001       .  S
Cd2066     O2068   2.063       .  S
O2067      C2074   1.276       .  A
C2069      O2073   1.277       .  A
C2069      C2201   1.491       .  S
C2070      C2137   1.507       .  S
C2072      C2105   1.490       .  S
C2074      C2242   1.475       .  S
C2075      O2076   1.276       .  A
C2075      C2178   1.487       .  S
C2077      C2078   1.545       .  S
C2077      C2083   1.529       .  S
C2077      C2081   1.532       .  S
C2077      C2169   1.548   1_554  S
C2078      H2085   1.084       .  S
C2078      C2079   1.369       .  D
C2079      C2080   1.563       .  S
C2079      C2585   1.512       .  S
C2080      C2084   1.557       .  S
C2080      C2082   1.564       .  S
C2080      H2086   1.108       .  S
C2081      H2087   1.079       .  S
C2081      C2082   1.364       .  D
C2082      C2094   1.501       .  S
C2083      H2088   1.087   1_554  S
C2083      C2084   1.360       .  D
C2084      C2210   1.498       .  S
C2089      C2090   1.534       .  S
C2089      C2095   1.539       .  S
C2089      C2093   1.556       .  S
C2089      C2265   1.561       .  S
C2090      H2097   1.080       .  S
C2090      C2091   1.361       .  D
C2091      C2092   1.544       .  S
C2091      C2146   1.486       .  S
C2092      C2096   1.546       .  S
C2092      C2094   1.547       .  S
C2092      H2098   1.099       .  S
C2093      H2099   1.084       .  S
C2093      C2094   1.376       .  D
C2095      H2100   1.086       .  S
C2095      C2096   1.368       .  D
C2096      C2114   1.501       .  S
C2101      C2102   1.403       .  A
C2101      C2106   1.412       .  A
C2101      H2111   1.083       .  S
C2102      C2107   1.495       .  S
C2102      C2103   1.418       .  A
C2103      C2108   1.520       .  S
C2103      C2104   1.410       .  A
C2104      C2105   1.405       .  A
C2104      H2109   1.083       .  S
C2105      C2106   1.420       .  A
C2106      C2110   1.518       .  S
C2107      C2112   1.417       .  A
C2107      C2116   1.402       .  A
C2108      F2124   1.382       .  S
C2108      F2125   1.383       .  S
C2108      F2126   1.385       .  S
C2110      F2121   1.382       .  S
C2110      F2122   1.384       .  S
C2110      F2123   1.384       .  S
C2112      C2117   1.518       .  S
C2112      C2113   1.411       .  A
C2113      C2114   1.405       .  A
C2113      H2118   1.081       .  S
C2114      C2115   1.422       .  A
C2115      C2119   1.519       .  S
C2115      C2116   1.411       .  A
C2116      H2120   1.083       .  S
C2117      F2130   1.384       .  S
C2117      F2131   1.382       .  S
C2117      F2132   1.382       .  S
C2119      F2127   1.385       .  S
C2119      F2128   1.381       .  S
C2119      F2129   1.379       .  S
C2133      C2138   1.415   1_545  A
C2133      H2143   1.083       .  S
C2134      C2139   1.488       .  S
C2135      C2136   1.410       .  A
C2136      C2137   1.410       .  A
C2136      H2141   1.082       .  S
C2137      C2138   1.429       .  A
C2138      C2142   1.520       .  S
C2139      C2144   1.416       .  A
C2139      C2148   1.397       .  A
C2140      F2156   1.382       .  S
C2140      F2157   1.382       .  S
C2140      F2158   1.384       .  S
C2142      F2153   1.385   1_565  S
C2142      F2154   1.383       .  S
C2142      F2155   1.383       .  S
C2144      C2145   1.412       .  A
C2145      C2146   1.404       .  A
C2145      H2150   1.083       .  S
C2146      C2147   1.423       .  A
C2147      C2151   1.516       .  S
C2147      C2148   1.402       .  A
C2148      H2152   1.085       .  S
C2149      F2162   1.385       .  S
C2149      F2163   1.382       .  S
C2149      F2164   1.382   1_545  S
C2151      F2159   1.384       .  S
C2151      F2160   1.374       .  S
C2151      F2161   1.383       .  S
C2165      C3122   1.398       .  A
C2165      C2170   1.410       .  A
C2165      H2175   1.084       .  S
C2166      C2171   1.489       .  S
C2166      C3121   1.399       .  A
C2166      C2167   1.412       .  A
C2167      C2172   1.522       .  S
C2167      C3124   1.408       .  A
C2168      C3123   1.407       .  A
C2168      C2169   1.416       .  A
C2168      H2173   1.078       .  S
C2169      C2170   1.437       .  A
C2170      C2174   1.526       .  S
C2171      C2176   1.415       .  A
C2171      C2180   1.402       .  A
C2172      F2188   1.382       .  S
C2172      F2189   1.381       .  S
C2172      F2190   1.385       .  S
C2174      F2185   1.383   1_556  S
C2174      F2186   1.385       .  S
C2174      F2187   1.380       .  S
C2176      C3137   1.519       .  S
C2176      C2177   1.410       .  A
C2177      C2178   1.406       .  A
C2177      H2182   1.083       .  S
C2178      C2179   1.420       .  A
C2179      C2183   1.520       .  S
C2179      C2180   1.409       .  A
C2180      H2184   1.083       .  S
C2181      C3132   1.519       .  S
C2181      F2194   1.384       .  S
C2181      F2195   1.382       .  S
C2181      F2196   1.382       .  S
C2183      F2191   1.385       .  S
C2183      F2192   1.384       .  S
C2183      F2193   1.382       .  S
C2197      C2198   1.402       .  A
C2197      H2207   1.083       .  S
C2198      C2203   1.495       .  S
C2199      C2204   1.519       .  S
C2199      C2200   1.414       .  A
C2200      C2201   1.407       .  A
C2200      H2205   1.083       .  S
C2201      C2202   1.419       .  A
C2202      C2206   1.519       .  S
C2203      C2208   1.421       .  A
C2203      C3168   1.404       .  A
C2204      F3176   1.382       .  S
C2204      F2222   1.384       .  S
C2206      F2218   1.385   1_565  S
C2206      F2219   1.382       .  S
C2208      C2213   1.518       .  S
C2208      C2209   1.410       .  A
C2209      C3166   1.405       .  A
C2209      H2214   1.085       .  S
C2210      C3165   1.406       .  A
C2210      C2211   1.419   1_554  A
C2211      C2215   1.510       .  S
C2211      C2212   1.408       .  A
C2212      C3159   1.400       .  A
C2212      H2216   1.083       .  S
C2213      F2226   1.383       .  S
C2213      F2227   1.383       .  S
C2213      F2228   1.381       .  S
C2215      F2223   1.385       .  S
C2215      F2224   1.381       .  S
C2215      F2225   1.381   1_556  S
F2220      C3160   1.382       .  S
C2229      C2230   1.393       .  A
C2229      C2234   1.405       .  A
C2229      H2239   1.085       .  S
C2230      C2235   1.486       .  S
C2230      C2231   1.410       .  A
C2231      C2236   1.521       .  S
C2231      C2232   1.410       .  A
C2232      C2233   1.419       .  A
C2232      H2237   1.076       .  S
C2233      C2234   1.438       .  A
C2234      C2238   1.523       .  S
C2235      C2240   1.417       .  A
C2235      C2244   1.404       .  A
C2236      F2252   1.382       .  S
C2236      F2253   1.382       .  S
C2236      F2254   1.385       .  S
C2238      F2249   1.383       .  S
C2238      F2250   1.386       .  S
C2238      F2251   1.369       .  S
C2240      C2245   1.519       .  S
C2240      C2241   1.409       .  A
C2241      C2242   1.403       .  A
C2241      H2246   1.083       .  S
C2242      C2243   1.413       .  A
C2243      C2247   1.518       .  S
C2243      C2244   1.406       .  A
C2244      H2248   1.083       .  S
C2245      F2258   1.385       .  S
C2245      F2259   1.382       .  S
C2245      F2260   1.381       .  S
C2247      F2255   1.383       .  S
C2247      F2256   1.383       .  S
C2247      F2257   1.384       .  S
C2261      C2262   1.393       .  A
C2261      C2266   1.407       .  A
C2261      H2271   1.085       .  S
C2262      C2267   1.498       .  S
C2262      C2263   1.414       .  A
C2263      C2268   1.518       .  S
C2263      C2264   1.416       .  A
C2264      C2265   1.418       .  A
C2264      H2269   1.078       .  S
C2265      C2266   1.441       .  A
C2266      C2270   1.523       .  S
C2267      C2272   1.421       .  A
C2267      C2276   1.404       .  A
C2268      F2284   1.382       .  S
C2268      F2285   1.383       .  S
C2268      F2286   1.385       .  S
C2270      F2281   1.386       .  S
C2270      F2282   1.382       .  S
C2270      F2283   1.373       .  S
C2272      C2277   1.521       .  S
C2272      C2273   1.410       .  A
C2273      C2274   1.403       .  A
C2273      H2278   1.083       .  S
C2274      C2275   1.420       .  A
C2275      C2279   1.518       .  S
C2275      C2276   1.413       .  A
C2276      H2280   1.083       .  S
C2277      F2290   1.385       .  S
C2277      F2291   1.381       .  S
C2277      F2292   1.383       .  S
C2279      F2287   1.384       .  S
C2279      F2288   1.382       .  S
C2279      F2289   1.384       .  S
C2293      C2294   1.400       .  A
C2293      C2298   1.406       .  A
C2293      H2303   1.085       .  S
C2294      C2299   1.494       .  S
C2294      C2295   1.418       .  A
C2295      C3256   1.519       .  S
C2295      C2296   1.412       .  A
C2296      C2297   1.406       .  A
C2296      H2301   1.082       .  S
C2297      C2298   1.424       .  A
C2298      C2302   1.518       .  S
C2299      C3260   1.418       .  A
C2299      C2308   1.404       .  A
C2300      C3251   1.518       .  S
C2300      F2316   1.382       .  S
C2300      F2317   1.383       .  S
C2300      F2318   1.385       .  S
C2302      F2313   1.383       .  S
C2302      F2314   1.384       .  S
C2302      F2315   1.379       .  S
C2304      C2309   1.520       .  S
C2304      C3255   1.418       .  A
C2304      C2305   1.410       .  A
C2305      C2306   1.405       .  A
C2305      H2310   1.083   1_556  S
C2306      C2307   1.421       .  A
C2307      C2311   1.518       .  S
C2307      C3264   1.415       .  A
C2308      C3263   1.412       .  A
C2308      H2312   1.083       .  S
C2309      F2322   1.385       .  S
C2309      F3279   1.382       .  S
C2309      F2324   1.383       .  S
C2311      F3275   1.385       .  S
C2311      F2320   1.383       .  S
C2311      F2321   1.382   1_556  S
F2319      C3267   1.384       .  S
F2323      C3265   1.382       .  S
C2325      C3282   1.402       .  A
C2325      H3291   1.083       .  S
C2326      C2331   1.494       .  S
C2326      C3281   1.402       .  A
C2327      C3284   1.408       .  A
C2328      C3283   1.409       .  A
C2328      C2329   1.410   1_556  A
C2328      H2333   1.082       .  S
C2329      C2330   1.430   1_554  A
C2330      C2334   1.520   1_556  S
C2331      C2336   1.419       .  A
C2331      C2340   1.399       .  A
C2332      F2348   1.381       .  S
C2332      F2349   1.383   1_565  S
C2334      F2345   1.385       .  S
C2334      F2347   1.382       .  S
H2335      C3281   1.083       .  S
C2336      C2341   1.517       .  S
C2336      C2337   1.414       .  A
C2337      C2338   1.404       .  A
C2337      H2342   1.083       .  S
C2338      C2339   1.422       .  A
C2339      C2343   1.516       .  S
C2339      C2340   1.404       .  A
C2340      H3300   1.085       .  S
C2341      F2354   1.384       .  S
C2341      F2355   1.382       .  S
C2343      F2351   1.384       .  S
C2343      F2352   1.375       .  S
C2343      F2353   1.383       .  S
H2344      C3296   1.085       .  S
C2357      C2358   1.405       .  A
C2357      C2362   1.412       .  A
C2357      H2367   1.083       .  S
C2358      C2363   1.496       .  S
C2358      C2359   1.418       .  A
C2359      C2364   1.519       .  S
C2359      C2360   1.410       .  A
C2360      C2361   1.404       .  A
C2360      H2365   1.083       .  S
C2361      C2362   1.415       .  A
C2362      C2366   1.514       .  S
C2363      C2368   1.419       .  A
C2364      F2380   1.382       .  S
C2364      F2381   1.382       .  S
C2364      F2382   1.385       .  S
C2366      F2377   1.382       .  S
C2366      F2378   1.384       .  S
C2366      F2379   1.382       .  S
C2368      C2373   1.520       .  S
C2369      C2370   1.404       .  A
C2369      H2374   1.083       .  S
C2370      C2371   1.420       .  A
C2371      C2375   1.517       .  S
C2371      C2372   1.414       .  A
C2372      H2376   1.083       .  S
C2373      F2386   1.384       .  S
C2373      F2387   1.382       .  S
C2373      F2388   1.383       .  S
C2375      F2383   1.382       .  S
C2375      F2384   1.383       .  S
C2375      F2385   1.385       .  S
C2389      C2390   1.398       .  A
C2389      C2394   1.410       .  A
C2389      H2399   1.085       .  S
C2390      C2395   1.491       .  S
C2390      C2391   1.411       .  A
C2391      C2396   1.520       .  S
C2391      C2392   1.408       .  A
C2392      C2393   1.416       .  A
C2392      H2397   1.076       .  S
C2393      C2394   1.437       .  A
C2394      C2398   1.526       .  S
C2395      C2400   1.417       .  A
C2395      C2404   1.402       .  A
C2396      F2412   1.382       .  S
C2396      F2413   1.382       .  S
C2396      F2414   1.385       .  S
C2398      F2409   1.383       .  S
C2398      F2410   1.385       .  S
C2398      F2411   1.376       .  S
C2400      C2405   1.519       .  S
C2400      C2401   1.411       .  A
C2401      C2402   1.404       .  A
C2401      H2406   1.083       .  S
C2402      C2403   1.420       .  A
C2403      C2407   1.520       .  S
C2403      C2404   1.407       .  A
C2404      H2408   1.085       .  S
C2405      F2418   1.384       .  S
C2405      F2419   1.382       .  S
C2405      F2420   1.382       .  S
C2407      F2415   1.383       .  S
C2407      F2416   1.381       .  S
C2407      F2417   1.384       .  S
C2421      C2422   1.395       .  A
C2421      C2426   1.407       .  A
C2421      H2431   1.085       .  S
C2422      C2427   1.488   1_655  S
C2422      C2423   1.410       .  A
C2423      C2428   1.522       .  S
C2423      C2424   1.408       .  A
C2424      C2425   1.419       .  A
C2424      H2429   1.072       .  S
C2425      C2426   1.439       .  A
C2426      C2430   1.528       .  S
C2427      C2432   1.413       .  A
C2427      C2436   1.398       .  A
C2428      F2444   1.382       .  S
C2428      F2445   1.382       .  S
C2428      F2446   1.385       .  S
C2430      F2441   1.383       .  S
C2430      F2442   1.385       .  S
C2430      F2443   1.373       .  S
C2432      C2437   1.519       .  S
C2432      C2433   1.410       .  A
C2433      C2434   1.413       .  A
C2433      H2438   1.082       .  S
C2434      C2435   1.431       .  A
C2435      C2439   1.523       .  S
C2435      C2436   1.407       .  A
C2436      H2440   1.083       .  S
C2437      F2450   1.385       .  S
C2437      F2451   1.382       .  S
C2437      F2452   1.382   1_455  S
C2439      F2447   1.384       .  S
C2439      F2448   1.383       .  S
C2439      F2449   1.385       .  S
C2453      C2454   1.400       .  A
C2453      C2458   1.407       .  A
C2454      C2455   1.417       .  A
C2455      C2460   1.518       .  S
C2455      C2456   1.414       .  A
C2456      C2457   1.408       .  A
C2456      H2461   1.083       .  S
C2457      C2458   1.422       .  A
C2458      C2462   1.515       .  S
C2459      C2464   1.414       .  A
C2459      C2468   1.400       .  A
C2460      F2476   1.382       .  S
C2460      F2477   1.382       .  S
C2460      F2478   1.385       .  S
C2462      F2473   1.385       .  S
C2462      F2474   1.382       .  S
C2462      F2475   1.383       .  S
C2464      C2465   1.409       .  A
C2465      C2466   1.413       .  A
C2465      H2470   1.082       .  S
C2466      C2467   1.431       .  A
C2467      C2471   1.519       .  S
C2467      C2468   1.413       .  A
C2468      H2472   1.082       .  S
C2469      F2482   1.384       .  S
C2469      F2483   1.382       .  S
C2469      F2484   1.382       .  S
C2471      F2479   1.385       .  S
C2471      F2480   1.372       .  S
C2471      F2481   1.382       .  S
C2485      C2486   1.406       .  A
C2485      C2490   1.413       .  A
C2485      H2495   1.083       .  S
C2486      C2491   1.496       .  S
C2486      C2487   1.420       .  A
C2487      C2492   1.521       .  S
C2487      C2488   1.411       .  A
C2488      C2489   1.403       .  A
C2488      H2493   1.083       .  S
C2489      C2490   1.415       .  A
C2490      C2494   1.516       .  S
C2491      C2496   1.418       .  A
C2491      C2500   1.399       .  A
C2492      F2508   1.382       .  S
C2492      F2509   1.382       .  S
C2492      F2510   1.384       .  S
C2494      F2505   1.383       .  S
C2494      F2506   1.384       .  S
C2494      F2507   1.383       .  S
C2496      C2501   1.517       .  S
C2496      C2497   1.416       .  A
C2497      C2498   1.406       .  A
C2497      H2502   1.083       .  S
C2498      C2499   1.424       .  A
C2499      C2503   1.518       .  S
C2499      C2500   1.405       .  A
C2500      H2504   1.084       .  S
C2501      F2514   1.385       .  S
C2501      F2515   1.382       .  S
C2501      F2516   1.382       .  S
C2503      F2511   1.385       .  S
C2503      F2512   1.379       .  S
C2503      F2513   1.382       .  S
C2517      C2518   1.404       .  A
C2517      C3478   1.411       .  A
C2518      C2519   1.417       .  A
C2519      C2524   1.519       .  S
C2519      C2520   1.412       .  A
C2520      C2521   1.407       .  A
C2520      H2525   1.083       .  S
C2521      C2917   1.493       .  S
C2521      C3478   1.420       .  A
C2522      C2526   1.520       .  S
C2522      C3473   1.410   1_554  A
C2522      C3477   1.421       .  A
C2523      C2528   1.416       .  A
C2523      C2532   1.402       .  A
C2524      F2540   1.382       .  S
C2524      F2541   1.382       .  S
C2524      F2542   1.384       .  S
C2526      F2537   1.382       .  S
C2526      F2538   1.384       .  S
C2526      F2539   1.384       .  S
C2528      C2529   1.409       .  A
C2529      C2530   1.407       .  A
C2529      H2534   1.083       .  S
C2530      C2531   1.423       .  A
C2531      C2535   1.514       .  S
C2531      C2532   1.413       .  A
C2532      H2536   1.083       .  S
C2533      F2547   1.382       .  S
C2533      F2548   1.382       .  S
C2535      F2543   1.385       .  S
C2535      F2544   1.379       .  S
C2535      F2545   1.380       .  S
C2549      C2550   1.404       .  A
C2549      C2554   1.415       .  A
C2549      H2559   1.083       .  S
C2550      C2555   1.490       .  S
C2550      C2551   1.413       .  A
C2551      C2556   1.522       .  S
C2551      C2552   1.404       .  A
C2552      C2553   1.410       .  A
C2552      H2557   1.081       .  S
C2553      C2554   1.423       .  A
C2554      C2558   1.517       .  S
C2555      C2560   1.412       .  A
C2555      C2564   1.399       .  A
C2556      F2572   1.382       .  S
C2556      F2573   1.382       .  S
C2556      F2574   1.385       .  S
C2558      F2569   1.380       .  S
C2558      F2570   1.385       .  S
C2558      F2571   1.382       .  S
C2560      C2565   1.520       .  S
C2560      C3517   1.410       .  A
C2561      C3516   1.411       .  A
C2561      C3518   1.413       .  A
C2561      H2566   1.082       .  S
C2562      C2934   1.507       .  S
C2562      C3517   1.414       .  A
C2562      C2563   1.429       .  A
C2563      C2567   1.520       .  S
C2563      C2564   1.411       .  A
C2564      H2568   1.083       .  S
C2565      F3534   1.385       .  S
C2565      F2579   1.382       .  S
C2565      F2580   1.382       .  S
C2567      F2575   1.385       .  S
C2567      F2576   1.384       .  S
C2567      F2577   1.383       .  S
F2578      C3521   1.384       .  S
C2581      C2582   1.404       .  A
C2581      C2586   1.417       .  A
C2581      H2591   1.083       .  S
C2582      C2587   1.496       .  S
C2582      C2583   1.415       .  A
C2583      C2588   1.521       .  S
C2583      C2584   1.407       .  A
C2584      C2585   1.409       .  A
C2584      H2589   1.079       .  S
C2585      C2586   1.421       .  A
C2586      C2590   1.508       .  S
C2587      C2592   1.418   1_455  A
C2587      C2596   1.404   1_455  A
C2588      F2604   1.382       .  S
C2588      F2605   1.382       .  S
C2588      F2606   1.385   1_554  S
C2590      F2601   1.380       .  S
C2590      F2602   1.385       .  S
C2590      F2603   1.383       .  S
C2592      C2597   1.518   1_655  S
C2592      C2593   1.415       .  A
C2593      C2594   1.406       .  A
C2593      H2598   1.083       .  S
C2594      C2595   1.414       .  A
C2595      C2599   1.516       .  S
C2595      C2596   1.408       .  A
C2596      H2600   1.083   1_655  S
C2597      F2610   1.385   1_455  S
C2597      F2611   1.383       .  S
C2597      F2612   1.382       .  S
C2599      F2607   1.384       .  S
C2599      F2608   1.383       .  S
C2599      F2609   1.383       .  S
C2613      C2614   1.397       .  A
C2613      C2618   1.406       .  A
C2613      H2623   1.083       .  S
C2614      C2619   1.482       .  S
C2614      C2615   1.413       .  A
C2615      C3576   1.520       .  S
C2615      C2616   1.408       .  A
C2616      C2617   1.410       .  A
C2616      H2621   1.082       .  S
C2617      C2618   1.425       .  A
C2618      C2622   1.515       .  S
C2619      C2624   1.409       .  A
C2619      C2628   1.396       .  A
C2620      C3571   1.520       .  S
C2620      F2636   1.382       .  S
C2620      F2637   1.382       .  S
C2620      F2638   1.385       .  S
C2622      F2633   1.382       .  S
C2622      F2634   1.385       .  S
C2622      F2635   1.380       .  S
C2624      C2629   1.522       .  S
C2624      C2625   1.403       .  A
C2625      C2626   1.415       .  A
C2625      H2630   1.077       .  S
C2626      C2627   1.437       .  A
C2627      C2631   1.525       .  S
C2627      C2628   1.408       .  A
C2628      H2632   1.085       .  S
C2629      F2642   1.384       .  S
C2629      F2643   1.382       .  S
C2629      F2644   1.382       .  S
C2631      F2639   1.383       .  S
C2631      F2640   1.376       .  S
C2631      F2641   1.385       .  S
C2645      C2646   1.403       .  A
C2645      C2650   1.410       .  A
C2645      H2655   1.083       .  S
C2646      C2651   1.487       .  S
C2646      C2647   1.418       .  A
C2647      C2652   1.521       .  S
C2647      C2648   1.406       .  A
C2648      C2649   1.402       .  A
C2648      H2653   1.084       .  S
C2649      C2650   1.417       .  A
C2650      C2654   1.516       .  S
C2651      C2656   1.416       .  A
C2651      C2660   1.401       .  A
C2652      F2668   1.382       .  S
C2652      F2669   1.383       .  S
C2652      F2670   1.385       .  S
C2654      F2665   1.382       .  S
C2654      F2666   1.384       .  S
C2654      F2667   1.383       .  S
C2656      C2661   1.519       .  S
C2656      C2657   1.408       .  A
C2657      C2658   1.406       .  A
C2657      H2662   1.082       .  S
C2658      C2659   1.418       .  A
C2659      C2663   1.517       .  S
C2659      C2660   1.404       .  A
C2660      H2664   1.085       .  S
C2661      F2674   1.385       .  S
C2661      F2675   1.382       .  S
C2661      F2676   1.382       .  S
C2663      F2671   1.384       .  S
C2663      F2672   1.383       .  S
C2663      F2673   1.383       .  S
C2677      C2678   1.403       .  A
C2677      C2682   1.407       .  A
C2677      H2687   1.083       .  S
C2678      C2683   1.487       .  S
C2678      C2679   1.417       .  A
C2679      C2684   1.519       .  S
C2679      C2680   1.409       .  A
C2680      C2681   1.402       .  A
C2680      H2685   1.083       .  S
C2681      C2682   1.415       .  A
C2682      C2686   1.518       .  S
C2683      C2688   1.409       .  A
C2683      C2692   1.393       .  A
C2684      F2700   1.382       .  S
C2684      F2701   1.382       .  S
C2684      F2702   1.384       .  S
C2686      F2697   1.385       .  S
C2686      F2698   1.382       .  S
C2686      F2699   1.383       .  S
C2688      C2693   1.520       .  S
C2688      C2689   1.410       .  A
C2689      C2690   1.420       .  A
C2689      H2694   1.076       .  S
C2690      C2691   1.440       .  A
C2691      C2695   1.522       .  S
C2691      C2692   1.407       .  A
C2692      H2696   1.084       .  S
C2693      F2706   1.385       .  S
C2693      F2707   1.382       .  S
C2693      F2708   1.382       .  S
C2695      F2703   1.386       .  S
C2695      F2704   1.370       .  S
C2695      F2705   1.381       .  S
C2709      C2710   1.398       .  A
C2709      C2714   1.401       .  A
C2709      H2719   1.085       .  S
C2710      C2715   1.484       .  S
C2710      C2711   1.415       .  A
C2711      C2716   1.516       .  S
C2711      C2712   1.410       .  A
C2712      C2713   1.405       .  A
C2712      H3673   1.083       .  S
C2713      C2911   1.484       .  S
C2713      C2714   1.424       .  A
C2714      C2718   1.522       .  S
C2715      C2724   1.399       .  A
C2716      F2732   1.382       .  S
C2716      F3690   1.385       .  S
H2717      C3668   1.083       .  S
C2718      F2729   1.384       .  S
C2718      F2730   1.383       .  S
C2718      F2731   1.379       .  S
C2720      C2725   1.520       .  S
C2720      C2721   1.410   1_545  A
C2721      C2722   1.413       .  A
C2721      H2726   1.082       .  S
C2722      C2723   1.431       .  A
C2723      C2727   1.522       .  S
C2724      H2728   1.083       .  S
C2725      F2738   1.385       .  S
C2725      F2740   1.382       .  S
C2727      F2736   1.383       .  S
C2727      F2737   1.383       .  S
F2734      C3672   1.385       .  S
C2741      C2742   1.404       .  A
C2741      C2746   1.410       .  A
C2741      H2751   1.083       .  S
C2742      C2747   1.489       .  S
C2742      C2743   1.420       .  A
C2743      C2748   1.519       .  S
C2743      C2744   1.407       .  A
C2744      C2745   1.402       .  A
C2744      H2749   1.082       .  S
C2745      C2906   1.492       .  S
C2745      C2746   1.417       .  A
C2746      C3706   1.515       .  S
C2747      C2752   1.415       .  A
C2747      C2756   1.401       .  A
C2748      F2764   1.383       .  S
C2748      F2765   1.381       .  S
C2748      F2766   1.383       .  S
C2750      C3702   1.514       .  S
C2750      F2761   1.381       .  S
C2750      F2762   1.381       .  S
C2750      F2763   1.385       .  S
C2752      C2757   1.517       .  S
C2752      C2753   1.412       .  A
C2753      C2754   1.407       .  A
C2753      H2758   1.083       .  S
C2754      C2755   1.421       .  A
C2755      C2759   1.520       .  S
C2755      C2756   1.408       .  A
C2756      H2760   1.083       .  S
C2757      F2770   1.384       .  S
C2757      F2771   1.383       .  S
C2757      F2772   1.383       .  S
C2759      F2767   1.382       .  S
C2759      F2768   1.383       .  S
C2759      F2769   1.385       .  S
C2773      C2778   1.410       .  A
C2774      C2779   1.492       .  S
C2775      C2776   1.410   1_545  A
C2776      C2777   1.403       .  A
C2776      H2781   1.083       .  S
C2777      C2778   1.419       .  A
C2778      C2782   1.516       .  S
C2779      C2784   1.417       .  A
C2779      C2788   1.398       .  A
C2780      F2796   1.382       .  S
C2780      F2797   1.382       .  S
C2782      F2793   1.384       .  S
C2782      F2794   1.384       .  S
C2782      F2795   1.381       .  S
C2784      C2785   1.414       .  A
C2785      C2786   1.405       .  A
C2785      H2790   1.083       .  S
C2786      C2787   1.424       .  A
C2787      C2791   1.519       .  S
C2787      C2788   1.403       .  A
C2788      H2792   1.085       .  S
C2789      F2802   1.384       .  S
C2789      F2803   1.382   1_545  S
C2789      F2804   1.383       .  S
C2791      F2799   1.384       .  S
C2791      F2800   1.377       .  S
C2791      F2801   1.383       .  S
C2805      C2806   1.395       .  A
C2805      C2810   1.406       .  A
C2805      H2815   1.085       .  S
C2806      C2811   1.484       .  S
C2806      C2807   1.410       .  A
C2807      C2812   1.521       .  S
C2807      C2808   1.408       .  A
C2808      C2809   1.415       .  A
C2808      H2813   1.076       .  S
C2809      C2810   1.438       .  A
C2810      C2814   1.529       .  S
C2811      C2816   1.411       .  A
C2811      C2820   1.398       .  A
C2812      F2828   1.382       .  S
C2812      F2829   1.382       .  S
C2812      F2830   1.384       .  S
C2814      F2825   1.385       .  S
C2814      F2826   1.377       .  S
C2814      F2827   1.382       .  S
C2816      C2821   1.520       .  S
C2816      C2817   1.406       .  A
C2817      C2818   1.413       .  A
C2817      H2822   1.082       .  S
C2818      C2819   1.429       .  A
C2819      C2823   1.520       .  S
C2819      C2820   1.409       .  A
C2820      H2824   1.083       .  S
C2821      F2834   1.385       .  S
C2821      F2835   1.382       .  S
C2821      F2836   1.381       .  S
C2823      F2831   1.383       .  S
C2823      F2832   1.380       .  S
C2823      F2833   1.385       .  S
C2837      C2838   1.403       .  A
C2837      C2842   1.407       .  A
C2837      H2847   1.083       .  S
C2838      C2843   1.488       .  S
C2838      C2839   1.416       .  A
C2839      C2844   1.518       .  S
C2839      C2840   1.410       .  A
C2840      C2841   1.403       .  A
C2840      H2845   1.083       .  S
C2841      C2842   1.418       .  A
C2842      C2846   1.520       .  S
C2843      C2848   1.418       .  A
C2843      C2852   1.402       .  A
C2844      F2860   1.382       .  S
C2844      F2861   1.381       .  S
C2844      F2862   1.385       .  S
C2846      F2857   1.383       .  S
C2846      F2858   1.385       .  S
C2846      F2859   1.383       .  S
C2848      C2853   1.520       .  S
C2848      C2849   1.411       .  A
C2849      C2850   1.404       .  A
C2849      H2854   1.081       .  S
C2850      C2851   1.418       .  A
C2851      C2855   1.517       .  S
C2851      C2852   1.405       .  A
C2852      H2856   1.085       .  S
C2853      F2866   1.385       .  S
C2853      F2867   1.382       .  S
C2853      F2868   1.381       .  S
C2855      F2863   1.384       .  S
C2855      F2864   1.383       .  S
C2855      F2865   1.383       .  S
O2869      C2885   1.278       .  A
O2869     Zn2875   2.053       .  S
C2870      O2886   1.276       .  A
C2870      O2883   1.276       .  A
C2870      C3797   1.485       .  S
O2871      C2884   1.275       .  A
O2871     Cd2878   2.084       .  S
O2872      C2890   1.279       .  A
O2872     Cd2881   2.101       .  S
O2873      C2887   1.274       .  A
O2873     Cd2877   2.080       .  S
O2874      C2885   1.276       .  A
O2874     Cd2877   2.086       .  S
Zn2875     O2886   2.036       .  S
Zn2875     O2888   2.030       .  S
Zn2875     O2880   1.963       .  S
O2876      C2887   1.279       .  A
O2876     Cd2881   2.088       .  S
Cd2877     O2879   2.090       .  S
Cd2877     O2880   2.010       .  S
Cd2878     O2882   2.093       .  S
Cd2878     O2891   2.102       .  S
Cd2878     O2880   2.013       .  S
O2879      C2889   1.277       .  A
O2880     Cd2881   2.015       .  S
Cd2881     O2883   2.087       .  S
O2882      C2889   1.278       .  A
C2884      O2888   1.276       .  A
C2884      C3774   1.499       .  S
C2885      C3710   1.495       .  S
C2887      C3678   1.507       .  S
C2889      C3637   1.487       .  S
C2890      O2891   1.278       .  A
C2890      C3733   1.494       .  S
C2892      C2893   1.529       .  S
C2892      C2898   1.556       .  S
C2892      C2896   1.528       .  S
C2892      C3765   1.546       .  S
C2893      H2900   1.087       .  S
C2893      C2894   1.360       .  D
C2894      C2895   1.555       .  S
C2894      C3742   1.490       .  S
C2895      C2899   1.541       .  S
C2895      C2897   1.547       .  S
C2895      H2901   1.110       .  S
C2896      H2902   1.086       .  S
C2896      C2897   1.361       .  D
C2897      C2909   1.485       .  S
C2898      H2903   1.080       .  S
C2898      C2899   1.374       .  D
C2899      C3614   1.495       .  S
C2904      C2905   1.538       .  S
C2904      C2910   1.545       .  S
C2904      C2908   1.539       .  S
C2904      C3582   1.550       .  S
C2905      H2912   1.087       .  S
C2905      C2906   1.365       .  D
C2906      C2907   1.542       .  S
C2907      C2911   1.540       .  S
C2907      C2909   1.549       .  S
C2907      H2913   1.111       .  S
C2908      H2914   1.082       .  S
C2908      C2909   1.368       .  D
C2910      H2915   1.084       .  S
C2910      C2911   1.364       .  D
O2916      C2932   1.272       .  A
O2916     Zn2922   2.021       .  S
C2917      O2933   1.276       .  A
C2917      O2930   1.276       .  A
O2918      C2931   1.279       .  A
O2918     Cd2925   2.098       .  S
O2919      C2937   1.276       .  A
O2919     Cd2928   2.074       .  S
O2920      C2934   1.277       .  A
O2920     Cd2924   2.080       .  S
O2921      C2932   1.277       .  A
O2921     Cd2924   2.083       .  S
Zn2922     O2933   2.038       .  S
Zn2922     O2935   2.031       .  S
Zn2922     O2927   1.953       .  S
O2923      C2934   1.276       .  A
O2923     Cd2928   2.091       .  S
Cd2924     O2926   2.091       .  S
Cd2924     O2927   2.011       .  S
Cd2925     O2929   2.108       .  S
Cd2925     O2938   2.102       .  S
Cd2925     O2927   2.022       .  S
O2926      C2936   1.277       .  A
O2927     Cd2928   2.008       .  S
Cd2928     O2930   2.090       .  S
O2929      C2936   1.279       .  A
C2931      O2935   1.275       .  A
C2931      C3413   1.500       .  S
C2932      C3573   1.502       .  S
C2936      C3445   1.489       .  S
C2937      O2938   1.279       .  A
C2937      C3550   1.480       .  S
C2939      C2940   1.531       .  S
C2939      C2945   1.535       .  S
C2939      C2943   1.539       .  S
C2939      C3381   1.543       .  S
C2940      H2947   1.087       .  S
C2940      C2941   1.367       .  D
C2941      C2942   1.554       .  S
C2941      C3509   1.506       .  S
C2942      C2946   1.554       .  S
C2942      C2944   1.563       .  S
C2942      H2948   1.102       .  S
C2943      H2949   1.079       .  S
C2943      C2944   1.368       .  D
C2944      C2956   1.509       .  S
C2945      H2950   1.085       .  S
C2945      C2946   1.363       .  D
C2946      C3486   1.501       .  S
C2951      C2952   1.538       .  S
C2951      C2957   1.541       .  S
C2951      C2955   1.550       .  S
C2951      C3646   1.563       .  S
C2952      H2959   1.083       .  S
C2952      C2953   1.365       .  D
C2953      C2954   1.549       .  S
C2953      C3454   1.515       .  S
C2954      C2958   1.538       .  S
C2954      C2956   1.561       .  S
C2954      H2960   1.098       .  S
C2955      H2961   1.083       .  S
C2955      C2956   1.372       .  D
C2957      H2962   1.073       .  S
C2957      C2958   1.367       .  D
C2958      C3422   1.504       .  S
O2963      C2979   1.277       .  A
O2963     Zn2969   2.036       .  S
C2964      O2980   1.276       .  A
C2964      O2977   1.276       .  A
C2964      C3262   1.489       .  S
O2965      C2978   1.275       .  A
O2965     Cd2972   2.076       .  S
O2966      C2984   1.275       .  A
O2966     Cd2975   2.080       .  S
O2967      C2981   1.275       .  A
O2967     Cd2971   2.076       .  S
O2968      C2979   1.274       .  A
O2968     Cd2971   2.081       .  S
Zn2969     O2980   2.039       .  S
Zn2969     O2982   2.022       .  S
Zn2969     O2974   1.957       .  S
O2970      C2981   1.277       .  A
O2970     Cd2975   2.082       .  S
Cd2971     O2973   2.085       .  S
Cd2971     O2974   2.008       .  S
Cd2972     O2976   2.092       .  S
Cd2972     O2985   2.092       .  S
Cd2972     O2974   2.013       .  S
O2973      C2983   1.277       .  A
O2974     Cd2975   2.008       .  S
Cd2975     O2977   2.075       .  S
O2976      C2983   1.277       .  A
C2978      O2982   1.274       .  A
C2978      C3358   1.473       .  S
C2979      C3605   1.485       .  S
C2981      C3285   1.493       .  S
C2983      C3326   1.487       .  S
C2984      O2985   1.277       .  A
C2984      C3230   1.480       .  S
C2986      C2987   1.533       .  S
C2986      C2992   1.536       .  S
C2986      C2990   1.542       .  S
C2986      C3349   1.547       .  S
C2987      H2994   1.086       .  S
C2987      C2988   1.365       .  D
C2988      C2989   1.547       .  S
C2988      C3806   1.489       .  S
C2989      C2993   1.554       .  S
C2989      C2991   1.550       .  S
C2989      H2995   1.110       .  S
C2990      H2996   1.081       .  S
C2990      C2991   1.365       .  D
C2991      C3003   1.493       .  S
C2992      H2997   1.085       .  S
C2992      C2993   1.364       .  D
C2993      C3317   1.494       .  S
C2998      C2999   1.535       .  S
C2998      C3004   1.539       .  S
C2998      C3002   1.549       .  S
C2998      C3189   1.555       .  S
C2999      H3006   1.086       .  S
C2999      C3000   1.365       .  D
C3000      C3001   1.543       .  S
C3000      C3294   1.490       .  S
C3001      C3005   1.552       .  S
C3001      C3003   1.544       .  S
C3001      H3007   1.107       .  S
C3002      H3008   1.083       .  S
C3002      C3003   1.369       .  D
C3004      H3009   1.083       .  S
C3004      C3005   1.369       .  D
C3005      C3253   1.499       .  S
O3010      C3026   1.274       .  A
O3010     Zn3016   2.028       .  S
C3011      O3027   1.279       .  A
C3011      O3024   1.270       .  A
C3011      C3390   1.496       .  S
O3012      C3025   1.277       .  A
O3012     Cd3019   2.092       .  S
O3013      C3031   1.273       .  A
O3013     Cd3022   2.070       .  S
O3014      C3028   1.278       .  A
O3014     Cd3018   2.105       .  S
O3015      C3026   1.279       .  A
O3015     Cd3018   2.091       .  S
Zn3016     O3027   2.045       .  S
Zn3016     O3029   2.048       .  S
Zn3016     O3021   1.958       .  S
O3017      C3028   1.273       .  A
O3017     Cd3022   2.073       .  S
Cd3018     O3020   2.084       .  S
Cd3018     O3021   2.015       .  S
Cd3019     O3023   2.073       .  S
Cd3019     O3032   2.089       .  S
Cd3019     O3021   2.013       .  S
O3020      C3030   1.277       .  A
O3021     Cd3022   1.997       .  S
Cd3022     O3024   2.048       .  S
O3023      C3030   1.276       .  A
C3025      O3029   1.277       .  A
C3025      C3157   1.497       .  S
C3026      C3093   1.500       .  S
C3028      C3061   1.488       .  S
C3030      C3198   1.475       .  S
C3031      O3032   1.278       .  A
C3031      C3134   1.490       .  S
C3033      C3034   1.541       .  S
C3033      C3039   1.529       .  S
C3033      C3037   1.534       .  S
C3033      C3125   1.548       .  S
C3034      H3041   1.084       .  S
C3034      C3035   1.367       .  D
C3035      C3036   1.560       .  S
C3035      C3541   1.505       .  S
C3036      C3040   1.554       .  S
C3036      C3038   1.560       .  S
C3036      H3042   1.109       .  S
C3037      H3043   1.081       .  S
C3037      C3038   1.368       .  D
C3038      C3050   1.503       .  S
C3039      H3044   1.087       .  S
C3039      C3040   1.362       .  D
C3040      C3166   1.495       .  S
C3045      C3046   1.534       .  S
C3045      C3051   1.536       .  S
C3045      C3049   1.559       .  S
C3045      C3221   1.558       .  S
C3046      H3053   1.087       .  S
C3046      C3047   1.362       .  D
C3047      C3048   1.547       .  S
C3047      C3102   1.495       .  S
C3048      C3052   1.550       .  S
C3048      C3050   1.545       .  S
C3048      H3054   1.099       .  S
C3049      H3055   1.081       .  S
C3049      C3050   1.375       .  D
C3051      H3056   1.086       .  S
C3051      C3052   1.367       .  D
C3052      C3070   1.500       .  S
C3057      C3058   1.403       .  A
C3057      C3062   1.413       .  A
C3057      H3067   1.083       .  S
C3058      C3063   1.494       .  S
C3058      C3059   1.418       .  A
C3059      C3064   1.520       .  S
C3059      C3060   1.410       .  A
C3060      C3061   1.403       .  A
C3060      H3065   1.083       .  S
C3061      C3062   1.420       .  A
C3062      C3066   1.518       .  S
C3063      C3068   1.417       .  A
C3063      C3072   1.400       .  A
C3064      F3080   1.382       .  S
C3064      F3081   1.383       .  S
C3064      F3082   1.384       .  S
C3066      F3077   1.382       .  S
C3066      F3078   1.385       .  S
C3066      F3079   1.384       .  S
C3068      C3073   1.517       .  S
C3068      C3069   1.413       .  A
C3069      C3070   1.406       .  A
C3069      H3074   1.082       .  S
C3070      C3071   1.424       .  A
C3071      C3075   1.517       .  S
C3071      C3072   1.406       .  A
C3072      H3076   1.085       .  S
C3073      F3086   1.385       .  S
C3073      F3087   1.382       .  S
C3073      F3088   1.382       .  S
C3075      F3083   1.384       .  S
C3075      F3084   1.378       .  S
C3075      F3085   1.383       .  S
C3089      C3094   1.411   1_545  A
C3089      H3099   1.083       .  S
C3090      C3095   1.496       .  S
C3091      C3092   1.409       .  A
C3092      C3093   1.409       .  A
C3092      H3097   1.082       .  S
C3093      C3094   1.427       .  A
C3094      C3098   1.521       .  S
C3095      C3100   1.419       .  A
C3095      C3104   1.399       .  A
C3096      F3112   1.382       .  S
C3096      F3113   1.382       .  S
C3096      F3114   1.384       .  S
C3098      F3109   1.385       .  S
C3098      F3110   1.383       .  S
C3098      F3111   1.384       .  S
C3100      C3101   1.416       .  A
C3101      C3102   1.405       .  A
C3101      H3106   1.083       .  S
C3102      C3103   1.421       .  A
C3103      C3107   1.514       .  S
C3103      C3104   1.405       .  A
C3104      H3108   1.085       .  S
C3105      F3118   1.384       .  S
C3105      F3119   1.382       .  S
C3105      F3120   1.382   1_545  S
C3107      F3115   1.384       .  S
C3107      F3116   1.377       .  S
C3107      F3117   1.383       .  S
C3121      C3126   1.410       .  A
C3121      H3131   1.085       .  S
C3122      C3127   1.488       .  S
C3122      C3123   1.410       .  A
C3123      C3128   1.521       .  S
C3124      C3125   1.416       .  A
C3124      H3129   1.078       .  S
C3125      C3126   1.434       .  A
C3126      C3130   1.524       .  S
C3127      C3132   1.414       .  A
C3127      C3136   1.401       .  A
C3128      F3144   1.382       .  S
C3128      F3145   1.382       .  S
C3128      F3146   1.385       .  S
C3130      F3141   1.382       .  S
C3130      F3142   1.385       .  S
C3130      F3143   1.378       .  S
C3132      C3133   1.409       .  A
C3133      C3134   1.407       .  A
C3133      H3138   1.083       .  S
C3134      C3135   1.424       .  A
C3135      C3139   1.521       .  S
C3135      C3136   1.409       .  A
C3136      H3140   1.083       .  S
C3137      F3150   1.384       .  S
C3137      F3151   1.383       .  S
C3137      F3152   1.381       .  S
C3139      F3147   1.385       .  S
C3139      F3148   1.384       .  S
C3139      F3149   1.383       .  S
C3153      C3154   1.405       .  A
C3153      H3163   1.083       .  S
C3154      C3159   1.498       .  S
C3155      C3160   1.519       .  S
C3155      C3156   1.414       .  A
C3156      C3157   1.408       .  A
C3156      H3161   1.083       .  S
C3157      C3158   1.422       .  A
C3158      C3162   1.520       .  S
C3159      C3164   1.420       .  A
C3160      F3178   1.384       .  S
C3162      F3174   1.385   1_565  S
C3162      F3175   1.382       .  S
C3164      C3169   1.518       .  S
C3164      C3165   1.416   1_556  A
C3165      H3170   1.083       .  S
C3166      C3167   1.416       .  A
C3167      C3171   1.512       .  S
C3167      C3168   1.410       .  A
C3168      H3172   1.083       .  S
C3169      F3182   1.385       .  S
C3169      F3183   1.382       .  S
C3169      F3184   1.381       .  S
C3171      F3179   1.385       .  S
C3171      F3180   1.380       .  S
C3171      F3181   1.382       .  S
C3185      C3186   1.395       .  A
C3185      C3190   1.409       .  A
C3185      H3195   1.085       .  S
C3186      C3191   1.488       .  S
C3186      C3187   1.410       .  A
C3187      C3192   1.521       .  S
C3187      C3188   1.409       .  A
C3188      C3189   1.418       .  A
C3188      H3193   1.076       .  S
C3189      C3190   1.440       .  A
C3190      C3194   1.523       .  S
C3191      C3196   1.418       .  A
C3191      C3200   1.404       .  A
C3192      F3208   1.382       .  S
C3192      F3209   1.382       .  S
C3192      F3210   1.384       .  S
C3194      F3205   1.383       .  S
C3194      F3206   1.385       .  S
C3194      F3207   1.371       .  S
C3196      C3201   1.519       .  S
C3196      C3197   1.409       .  A
C3197      C3198   1.402       .  A
C3197      H3202   1.083       .  S
C3198      C3199   1.414       .  A
C3199      C3203   1.518       .  S
C3199      C3200   1.406       .  A
C3200      H3204   1.083       .  S
C3201      F3214   1.385       .  S
C3201      F3215   1.382       .  S
C3201      F3216   1.382       .  S
C3203      F3211   1.383       .  S
C3203      F3212   1.383       .  S
C3203      F3213   1.385       .  S
C3217      C3218   1.392       .  A
C3217      C3222   1.407       .  A
C3217      H3227   1.086       .  S
C3218      C3223   1.493       .  S
C3218      C3219   1.410       .  A
C3219      C3224   1.520       .  S
C3219      C3220   1.414       .  A
C3220      C3221   1.420       .  A
C3220      H3225   1.072       .  S
C3221      C3222   1.444       .  A
C3222      C3226   1.526       .  S
C3223      C3228   1.419       .  A
C3223      C3232   1.405       .  A
C3224      F3240   1.382       .  S
C3224      F3241   1.382       .  S
C3224      F3242   1.384       .  S
C3226      F3237   1.384       .  S
C3226      F3238   1.366       .  S
C3226      F3239   1.384       .  S
C3228      C3233   1.520       .  S
C3228      C3229   1.410       .  A
C3229      C3230   1.402       .  A
C3229      H3234   1.083       .  S
C3230      C3231   1.414       .  A
C3231      C3235   1.516       .  S
C3231      C3232   1.409       .  A
C3232      H3236   1.083       .  S
C3233      F3246   1.385       .  S
C3233      F3247   1.382       .  S
C3233      F3248   1.382       .  S
C3235      F3243   1.383       .  S
C3235      F3244   1.383       .  S
C3235      F3245   1.384       .  S
C3249      C3250   1.401       .  A
C3249      C3254   1.408       .  A
C3249      H3259   1.085       .  S
C3250      C3255   1.498       .  S
C3250      C3251   1.418       .  A
C3251      C3252   1.413       .  A
C3252      C3253   1.405       .  A
C3252      H3257   1.082       .  S
C3253      C3254   1.424       .  A
C3254      C3258   1.517       .  S
C3255      C3264   1.405       .  A
C3256      F3272   1.382       .  S
C3256      F3273   1.383       .  S
C3256      F3274   1.384       .  S
C3258      F3269   1.383       .  S
C3258      F3270   1.384       .  S
C3258      F3271   1.378       .  S
C3260      C3265   1.521       .  S
C3260      C3261   1.408       .  A
C3261      C3262   1.405       .  A
C3261      H3266   1.083       .  S
C3262      C3263   1.420       .  A
C3263      C3267   1.518       .  S
C3264      H3268   1.083       .  S
C3265      F3278   1.385       .  S
C3265      F3280   1.383       .  S
C3267      F3276   1.383       .  S
C3267      F3277   1.383       .  S
C3282      C3287   1.493       .  S
C3284      C3285   1.407       .  A
C3284      H3289   1.083       .  S
C3285      C3286   1.424       .  A
C3286      C3290   1.519       .  S
C3287      C3292   1.418       .  A
C3287      C3296   1.399       .  A
C3288      F3304   1.382   1_545  S
C3288      F3305   1.382   1_545  S
C3290      F3301   1.385       .  S
C3290      F3303   1.384       .  S
C3292      C3297   1.517       .  S
C3292      C3293   1.414       .  A
C3293      C3294   1.405       .  A
C3293      H3298   1.083       .  S
C3294      C3295   1.420       .  A
C3295      C3299   1.515       .  S
C3295      C3296   1.404       .  A
C3297      F3310   1.385       .  S
C3297      F3311   1.382       .  S
C3299      F3307   1.384       .  S
C3299      F3308   1.377       .  S
C3299      F3309   1.383       .  S
C3313      C3314   1.405       .  A
C3313      C3318   1.414       .  A
C3313      H3323   1.083       .  S
C3314      C3319   1.497       .  S
C3314      C3315   1.417       .  A
C3315      C3320   1.519       .  S
C3315      C3316   1.410       .  A
C3316      C3317   1.405       .  A
C3316      H3321   1.082       .  S
C3317      C3318   1.416       .  A
C3318      C3322   1.514       .  S
C3319      C3324   1.418       .  A
C3320      F3336   1.383       .  S
C3320      F3337   1.382       .  S
C3320      F3338   1.384       .  S
C3322      F3333   1.382       .  S
C3322      F3334   1.384       .  S
C3322      F3335   1.383       .  S
C3324      C3329   1.520       .  S
C3325      C3326   1.403       .  A
C3325      H3330   1.083       .  S
C3326      C3327   1.420       .  A
C3327      C3331   1.517       .  S
C3327      C3328   1.412       .  A
C3328      H3332   1.083       .  S
C3329      F3342   1.384       .  S
C3329      F3343   1.383       .  S
C3329      F3344   1.382       .  S
C3331      F3339   1.382       .  S
C3331      F3340   1.383       .  S
C3331      F3341   1.385       .  S
C3345      C3346   1.397       .  A
C3345      C3350   1.408       .  A
C3345      H3355   1.085       .  S
C3346      C3351   1.485       .  S
C3346      C3347   1.410       .  A
C3347      C3352   1.521       .  S
C3347      C3348   1.407       .  A
C3348      C3349   1.417       .  A
C3348      H3353   1.076       .  S
C3349      C3350   1.436       .  A
C3350      C3354   1.526       .  S
C3351      C3356   1.418       .  A
C3351      C3360   1.403       .  A
C3352      F3368   1.382       .  S
C3352      F3369   1.382       .  S
C3352      F3370   1.385       .  S
C3354      F3365   1.383       .  S
C3354      F3366   1.385       .  S
C3354      F3367   1.377       .  S
C3356      C3361   1.519       .  S
C3356      C3357   1.409       .  A
C3357      C3358   1.402       .  A
C3357      H3362   1.083       .  S
C3358      C3359   1.413       .  A
C3359      C3363   1.517       .  S
C3359      C3360   1.405       .  A
C3360      H3364   1.083       .  S
C3361      F3374   1.384       .  S
C3361      F3375   1.382       .  S
C3361      F3376   1.382       .  S
C3363      F3371   1.384       .  S
C3363      F3372   1.383       .  S
C3363      F3373   1.382       .  S
C3377      C3378   1.398       .  A
C3377      C3382   1.405       .  A
C3377      H3387   1.086       .  S
C3378      C3383   1.481   1_655  S
C3378      C3379   1.413       .  A
C3379      C3384   1.519       .  S
C3379      C3380   1.405       .  A
C3380      C3381   1.415       .  A
C3380      H3385   1.081       .  S
C3381      C3382   1.432       .  A
C3382      C3386   1.524       .  S
C3383      C3388   1.414       .  A
C3383      C3392   1.398       .  A
C3384      F3400   1.383       .  S
C3384      F3401   1.382       .  S
C3384      F3402   1.384       .  S
C3386      F3397   1.383       .  S
C3386      F3398   1.385       .  S
C3386      F3399   1.377       .  S
C3388      C3393   1.517       .  S
C3388      C3389   1.406       .  A
C3389      C3390   1.410       .  A
C3389      H3394   1.084       .  S
C3390      C3391   1.430       .  A
C3391      C3395   1.523       .  S
C3391      C3392   1.405       .  A
C3392      H3396   1.083       .  S
C3393      F3406   1.384       .  S
C3393      F3407   1.383       .  S
C3393      F3408   1.382   1_455  S
C3395      F3403   1.384       .  S
C3395      F3404   1.383       .  S
C3395      F3405   1.385       .  S
C3409      C3410   1.400       .  A
C3409      C3414   1.407       .  A
C3410      C3411   1.417       .  A
C3411      C3416   1.519       .  S
C3411      C3412   1.413       .  A
C3412      C3413   1.409       .  A
C3412      H3417   1.083       .  S
C3413      C3414   1.425       .  A
C3414      C3418   1.517       .  S
C3415      C3420   1.415       .  A
C3415      C3424   1.401       .  A
C3416      F3432   1.381       .  S
C3416      F3433   1.382       .  S
C3416      F3434   1.384       .  S
C3418      F3429   1.385       .  S
C3418      F3430   1.383       .  S
C3418      F3431   1.384       .  S
C3420      C3421   1.408       .  A
C3421      C3422   1.409       .  A
C3421      H3426   1.083       .  S
C3422      C3423   1.424       .  A
C3423      C3427   1.517       .  S
C3423      C3424   1.411       .  A
C3424      H3428   1.083       .  S
C3425      F3438   1.385       .  S
C3425      F3439   1.381       .  S
C3425      F3440   1.382       .  S
C3427      F3435   1.385       .  S
C3427      F3436   1.374       .  S
C3427      F3437   1.380       .  S
C3441      C3442   1.407       .  A
C3441      C3446   1.415       .  A
C3441      H3451   1.083       .  S
C3442      C3447   1.502       .  S
C3442      C3443   1.420       .  A
C3443      C3448   1.519       .  S
C3443      C3444   1.413       .  A
C3444      C3445   1.402       .  A
C3444      H3449   1.083       .  S
C3445      C3446   1.416       .  A
C3446      C3450   1.516       .  S
C3447      C3452   1.417       .  A
C3447      C3456   1.399       .  A
C3448      F3464   1.382       .  S
C3448      F3465   1.382       .  S
C3448      F3466   1.384       .  S
C3450      F3461   1.383       .  S
C3450      F3462   1.385       .  S
C3450      F3463   1.383       .  S
C3452      C3457   1.518       .  S
C3452      C3453   1.417       .  A
C3453      C3454   1.411       .  A
C3453      H3458   1.082       .  S
C3454      C3455   1.432       .  A
C3455      C3459   1.522       .  S
C3455      C3456   1.410       .  A
C3456      H3460   1.084       .  S
C3457      F3470   1.385       .  S
C3457      F3471   1.382       .  S
C3457      F3472   1.382       .  S
C3459      F3467   1.385       .  S
C3459      F3468   1.376       .  S
C3459      F3469   1.382       .  S
C3473      C3474   1.403       .  A
C3474      C3475   1.417       .  A
C3475      C3480   1.518       .  S
C3475      C3476   1.414   1_556  A
C3476      C3477   1.408       .  A
C3476      H3481   1.083       .  S
C3478      C3482   1.520       .  S
C3479      C3484   1.418       .  A
C3479      C3488   1.402       .  A
C3480      F3496   1.382       .  S
C3480      F3497   1.382       .  S
C3480      F3498   1.384       .  S
C3482      F3493   1.382       .  S
C3482      F3494   1.385       .  S
C3482      F3495   1.384       .  S
C3484      C3485   1.413       .  A
C3485      C3486   1.407       .  A
C3485      H3490   1.083       .  S
C3486      C3487   1.421       .  A
C3487      C3491   1.513       .  S
C3487      C3488   1.412       .  A
C3488      H3492   1.083       .  S
C3489      F3503   1.382       .  S
C3489      F3504   1.382       .  S
C3491      F3499   1.385       .  S
C3491      F3500   1.380       .  S
C3491      F3501   1.381       .  S
C3505      C3506   1.404       .  A
C3505      C3510   1.416       .  A
C3505      H3515   1.083       .  S
C3506      C3511   1.493       .  S
C3506      C3507   1.414       .  A
C3507      C3512   1.522       .  S
C3507      C3508   1.406       .  A
C3508      C3509   1.410       .  A
C3508      H3513   1.082       .  S
C3509      C3510   1.423       .  A
C3510      C3514   1.518       .  S
C3511      C3516   1.413   1_556  A
C3511      C3520   1.400       .  A
C3512      F3528   1.382       .  S
C3512      F3529   1.381   1_556  S
C3512      F3530   1.384       .  S
C3514      F3525   1.380       .  S
C3514      F3526   1.385       .  S
C3514      F3527   1.383       .  S
C3516      C3521   1.520       .  S
C3517      H3522   1.082       .  S
C3518      C3519   1.429   1_554  A
C3519      C3523   1.520       .  S
C3519      C3520   1.412       .  A
C3520      H3524   1.083       .  S
C3521      F3535   1.383   1_554  S
C3521      F3536   1.382       .  S
C3523      F3531   1.385       .  S
C3523      F3532   1.384       .  S
C3523      F3533   1.382       .  S
C3537      C3538   1.404       .  A
C3537      C3542   1.415       .  A
C3537      H3547   1.083       .  S
C3538      C3543   1.492       .  S
C3538      C3539   1.414       .  A
C3539      C3544   1.521       .  S
C3539      C3540   1.405       .  A
C3540      C3541   1.408       .  A
C3540      H3545   1.080       .  S
C3541      C3542   1.419       .  A
C3542      C3546   1.509       .  S
C3543      C3548   1.417   1_455  A
C3543      C3552   1.404   1_455  A
C3544      F3560   1.382       .  S
C3544      F3561   1.382       .  S
C3544      F3562   1.385       .  S
C3546      F3557   1.381       .  S
C3546      F3558   1.385       .  S
C3546      F3559   1.383       .  S
C3548      C3553   1.518   1_655  S
C3548      C3549   1.412       .  A
C3549      C3550   1.404       .  A
C3549      H3554   1.083       .  S
C3550      C3551   1.415       .  A
C3551      C3555   1.517       .  S
C3551      C3552   1.408       .  A
C3552      H3556   1.083   1_655  S
C3553      F3566   1.384   1_455  S
C3553      F3567   1.382       .  S
C3553      F3568   1.382       .  S
C3555      F3563   1.384       .  S
C3555      F3564   1.383       .  S
C3555      F3565   1.383       .  S
C3569      C3570   1.397       .  A
C3569      C3574   1.408       .  A
C3569      H3579   1.083       .  S
C3570      C3575   1.487       .  S
C3570      C3571   1.414       .  A
C3571      C3572   1.408       .  A
C3572      C3573   1.411       .  A
C3572      H3577   1.082       .  S
C3573      C3574   1.429       .  A
C3574      C3578   1.519       .  S
C3575      C3580   1.410       .  A
C3575      C3584   1.397       .  A
C3576      F3592   1.382       .  S
C3576      F3593   1.382       .  S
C3576      F3594   1.384       .  S
C3578      F3589   1.383       .  S
C3578      F3590   1.385       .  S
C3578      F3591   1.380       .  S
C3580      C3585   1.522       .  S
C3580      C3581   1.407       .  A
C3581      C3582   1.418       .  A
C3581      H3586   1.077       .  S
C3582      C3583   1.436       .  A
C3583      C3587   1.523       .  S
C3583      C3584   1.409       .  A
C3584      H3588   1.085       .  S
C3585      F3598   1.385       .  S
C3585      F3599   1.382       .  S
C3585      F3600   1.382       .  S
C3587      F3595   1.382       .  S
C3587      F3596   1.376       .  S
C3587      F3597   1.385       .  S
C3601      C3602   1.404       .  A
C3601      C3606   1.412       .  A
C3601      H3611   1.083       .  S
C3602      C3607   1.491       .  S
C3602      C3603   1.418       .  A
C3603      C3608   1.520       .  S
C3603      C3604   1.407       .  A
C3604      C3605   1.403       .  A
C3604      H3609   1.083       .  S
C3605      C3606   1.419       .  A
C3606      C3610   1.517       .  S
C3607      C3612   1.417       .  A
C3607      C3616   1.401       .  A
C3608      F3624   1.382       .  S
C3608      F3625   1.383       .  S
C3608      F3626   1.385       .  S
C3610      F3621   1.382       .  S
C3610      F3622   1.385       .  S
C3610      F3623   1.383       .  S
C3612      C3617   1.518       .  S
C3612      C3613   1.411       .  A
C3613      C3614   1.406       .  A
C3613      H3618   1.082       .  S
C3614      C3615   1.420       .  A
C3615      C3619   1.517       .  S
C3615      C3616   1.405       .  A
C3616      H3620   1.085       .  S
C3617      F3630   1.384       .  S
C3617      F3631   1.382       .  S
C3617      F3632   1.382       .  S
C3619      F3627   1.384       .  S
C3619      F3628   1.382       .  S
C3619      F3629   1.383       .  S
C3633      C3634   1.404       .  A
C3633      C3638   1.410       .  A
C3633      H3643   1.083       .  S
C3634      C3639   1.496       .  S
C3634      C3635   1.420       .  A
C3635      C3640   1.519       .  S
C3635      C3636   1.413       .  A
C3636      C3637   1.405       .  A
C3636      H3641   1.083       .  S
C3637      C3638   1.417       .  A
C3638      C3642   1.518       .  S
C3639      C3644   1.411       .  A
C3639      C3648   1.393       .  A
C3640      F3656   1.382       .  S
C3640      F3657   1.382       .  S
C3640      F3658   1.385       .  S
C3642      F3653   1.385       .  S
C3642      F3654   1.382       .  S
C3642      F3655   1.383       .  S
C3644      C3649   1.519       .  S
C3644      C3645   1.413       .  A
C3645      C3646   1.420       .  A
C3645      H3650   1.079       .  S
C3646      C3647   1.446       .  A
C3647      C3651   1.527       .  S
C3647      C3648   1.411       .  A
C3648      H3652   1.083       .  S
C3649      F3662   1.385       .  S
C3649      F3663   1.382       .  S
C3649      F3664   1.382       .  S
C3651      F3659   1.385       .  S
C3651      F3660   1.377       .  S
C3651      F3661   1.382       .  S
C3665      C3666   1.400       .  A
C3665      C3670   1.404       .  A
C3665      H3675   1.085       .  S
C3666      C3671   1.492       .  S
C3666      C3667   1.418   1_556  A
C3667      C3672   1.518       .  S
C3667      C3668   1.413       .  A
C3668      C3669   1.405       .  A
C3669      C3670   1.423   1_554  A
C3670      C3674   1.522       .  S
C3671      C3680   1.400       .  A
C3672      F3688   1.382       .  S
C3674      F3685   1.384       .  S
C3674      F3686   1.383       .  S
C3674      F3687   1.379       .  S
C3676      C3681   1.520       .  S
C3676      C3677   1.409   1_545  A
C3677      C3678   1.412       .  A
C3677      H3682   1.082       .  S
C3678      C3679   1.430       .  A
C3679      C3683   1.522       .  S
C3680      H3684   1.083       .  S
C3681      F3694   1.385       .  S
C3681      F3696   1.382       .  S
C3683      F3692   1.383       .  S
C3683      F3693   1.384       .  S
C3697      C3698   1.401   1_554  A
C3697      C3702   1.408       .  A
C3697      H3707   1.084       .  S
C3698      C3703   1.494       .  S
C3698      C3699   1.419       .  A
C3699      C3704   1.518       .  S
C3699      C3700   1.413       .  A
C3700      C3701   1.404   1_556  A
C3700      H3705   1.082       .  S
C3701      C3702   1.419       .  A
C3703      C3708   1.416       .  A
C3703      C3712   1.402       .  A
C3704      F3720   1.382       .  S
C3704      F3721   1.381       .  S
C3704      F3722   1.385       .  S
C3706      F3717   1.381       .  S
C3706      F3718   1.380       .  S
C3706      F3719   1.384       .  S
C3708      C3713   1.519       .  S
C3708      C3709   1.414       .  A
C3709      C3710   1.408       .  A
C3709      H3714   1.083       .  S
C3710      C3711   1.422       .  A
C3711      C3715   1.520       .  S
C3711      C3712   1.411       .  A
C3712      H3716   1.083       .  S
C3713      F3726   1.384       .  S
C3713      F3727   1.383   1_556  S
C3713      F3728   1.381       .  S
C3715      F3723   1.383       .  S
C3715      F3724   1.383       .  S
C3715      F3725   1.385       .  S
C3729      C3734   1.412       .  A
C3730      C3735   1.494       .  S
C3731      C3732   1.414   1_545  A
C3732      C3733   1.405       .  A
C3732      H3737   1.083       .  S
C3733      C3734   1.419       .  A
C3734      C3738   1.515       .  S
C3735      C3740   1.418       .  A
C3735      C3744   1.398       .  A
C3736      F3752   1.382       .  S
C3736      F3753   1.382       .  S
C3738      F3749   1.385       .  S
C3738      F3750   1.384       .  S
C3738      F3751   1.380       .  S
C3740      C3741   1.415       .  A
C3741      C3742   1.406       .  A
C3741      H3746   1.083       .  S
C3742      C3743   1.425       .  A
C3743      C3747   1.519       .  S
C3743      C3744   1.404       .  A
C3744      H3748   1.085       .  S
C3745      F3758   1.384       .  S
C3745      F3759   1.382   1_545  S
C3745      F3760   1.382       .  S
C3747      F3755   1.383       .  S
C3747      F3756   1.375       .  S
C3747      F3757   1.383       .  S
C3761      C3762   1.394       .  A
C3761      C3766   1.408       .  A
C3761      H3771   1.085       .  S
C3762      C3767   1.488       .  S
C3762      C3763   1.410       .  A
C3763      C3768   1.521       .  S
C3763      C3764   1.408       .  A
C3764      C3765   1.416       .  A
C3764      H3769   1.072       .  S
C3765      C3766   1.441       .  A
C3766      C3770   1.530       .  S
C3767      C3772   1.414       .  A
C3767      C3776   1.399       .  A
C3768      F3784   1.382       .  S
C3768      F3785   1.382       .  S
C3768      F3786   1.385       .  S
C3770      F3781   1.384       .  S
C3770      F3782   1.374       .  S
C3770      F3783   1.384       .  S
C3772      C3777   1.520       .  S
C3772      C3773   1.409       .  A
C3773      C3774   1.410       .  A
C3773      H3778   1.082       .  S
C3774      C3775   1.426       .  A
C3775      C3779   1.518       .  S
C3775      C3776   1.409       .  A
C3776      H3780   1.083       .  S
C3777      F3790   1.384       .  S
C3777      F3791   1.382       .  S
C3777      F3792   1.382       .  S
C3779      F3787   1.383       .  S
C3779      F3788   1.382       .  S
C3779      F3789   1.385       .  S
C3793      C3794   1.403       .  A
C3793      C3798   1.409       .  A
C3793      H3803   1.083       .  S
C3794      C3799   1.491       .  S
C3794      C3795   1.417       .  A
C3795      C3800   1.518       .  S
C3795      C3796   1.412       .  A
C3796      C3797   1.405       .  A
C3796      H3801   1.083       .  S
C3797      C3798   1.418       .  A
C3798      C3802   1.519       .  S
C3799      C3804   1.418       .  A
C3799      C3808   1.403       .  A
C3800      F3816   1.382       .  S
C3800      F3817   1.382       .  S
C3800      F3818   1.384       .  S
C3802      F3813   1.384       .  S
C3802      F3814   1.385       .  S
C3802      F3815   1.382       .  S
C3804      C3809   1.519       .  S
C3804      C3805   1.410       .  A
C3805      C3806   1.402       .  A
C3805      H3810   1.079       .  S
C3806      C3807   1.418       .  A
C3807      C3811   1.518       .  S
C3807      C3808   1.409       .  A
C3808      H3812   1.083       .  S
C3809      F3822   1.385       .  S
C3809      F3823   1.382       .  S
C3809      F3824   1.381       .  S
C3811      F3819   1.385       .  S
C3811      F3820   1.381       .  S
C3811      F3821   1.380       .  S
