geometry optimzed in LAMMPS
_audit_creation_date              2020-11-30 
_audit_creation_method            'lammps2cif' 
_symmetry_space_group_name_H-M    'P1' 
_symmetry_Int_Tables_number       1 
_symmetry_cell_setting            triclinic 
loop_ 
_symmetry_equiv_pos_as_xyz 
  x,y,z 
_cell_length_a                    34.71135945 
_cell_length_b                    46.70542220325731 
_cell_length_c                    43.37840337953312 
_cell_angle_alpha                 90.3481825602775 
_cell_angle_beta                  88.66153754189905 
_cell_angle_gamma                 89.75222216729443 
loop_ 
_atom_site_label 
_atom_site_type_symbol 
_atom_site_fract_x 
_atom_site_fract_y 
_atom_site_fract_z 
_atom_site_charge 
N1          N  0.49148912  0.54160432  0.45594766    -0.36900
N2          N  0.43208186  0.49708621  0.96979142    -0.57400
N3          N  0.49177640  0.45330348  0.96305418    -0.36900
N4          N  0.54984381  0.49692835  0.94663301    -0.57400
C5          C  0.45914122  0.55775302  0.45436710     0.26700
C6          C  0.52081327  0.55722641  0.44384541     0.26700
C7          C  0.46000846  0.43648148  0.96493831     0.26700
C8          C  0.52202449  0.43645402  0.95427332     0.26700
C9          C  0.41206417  0.52273813  0.47571733     0.35300
C10         C  0.41154000  0.47422608  0.97981096     0.35300
C11         C  0.57366518  0.52166023  0.44850023     0.35300
C12         C  0.57334248  0.47393038  0.94923736     0.35300
C13         C  0.46792535  0.58373911  0.44063599    -0.22200
C14         C  0.50682375  0.58336143  0.43390338    -0.22200
C15         C  0.47042229  0.40855510  0.95726971    -0.22200
C16         C  0.50946141  0.40849949  0.95088808    -0.22200
C17         C  0.37836517  0.51505119  0.49120871    -0.23200
C18         C  0.37782821  0.48348369  0.99452720    -0.23200
C19         C  0.61153813  0.51359269  0.45316098    -0.23200
C20         C  0.61150754  0.48267687  0.94877094    -0.23200
C21         C  0.42309253  0.55107518  0.46837995    -0.18600
C22         C  0.56039256  0.55020054  0.44556803    -0.18600
C23         C  0.56115762  0.44506695  0.95175919    -0.18600
C24         C  0.42237481  0.44513407  0.97515947    -0.18600
H25         H  0.44854604  0.60151815  0.43681893     0.14400
H26         H  0.52327551  0.60079593  0.42396039     0.14400
H27         H  0.45199437  0.38993245  0.95686736     0.14400
H28         H  0.52666529  0.38987379  0.94469241     0.14400
H29         H  0.35622928  0.52919819  0.50062518     0.12600
H30         H  0.35550254  0.47034997  0.00492474     0.12600
H31         H  0.63633710  0.52732697  0.45541665     0.12600
H32         H  0.63700876  0.46935307  0.95000232     0.12600
H33         H  0.49450398  0.52329793  0.46915541     0.25900
H34         H  0.49378922  0.47422477  0.97084616     0.25900
N35         N  0.01383791  0.04095023  0.04948252    -0.36900
N36         N  0.95197709  0.99963866  0.05023234    -0.57400
N37         N  0.01017905  0.95410901  0.04622833    -0.36900
N38         N  0.07285712  0.99549036  0.04874852    -0.57400
C39         C  0.98340977  0.05868877  0.05523861     0.26700
C40         C  0.04633195  0.05626692  0.05354647     0.26700
C41         C  0.97767122  0.93854827  0.05091363     0.26700
C42         C  0.04070162  0.93656789  0.05094014     0.26700
C43         C  0.93059173  0.02367941  0.04663515     0.35300
C44         C  0.92860428  0.97722971  0.04435912     0.35300
C45         C  0.09545577  0.01822887  0.04169008     0.35300
C46         C  0.09371841  0.97163757  0.04164849     0.35300
C47         C  0.99692235  0.08552158  0.06345425    -0.22200
C48         C  0.03648286  0.08393313  0.06257911    -0.22200
C49         C  0.98773792  0.91084060  0.05888468    -0.22200
C50         C  0.02729770  0.90972100  0.05936281    -0.22200
C51         C  0.89301003  0.01639200  0.03993040    -0.23200
C52         C  0.89177235  0.98707269  0.03844219    -0.23200
C53         C  0.13120289  0.00878713  0.03087832    -0.23200
C54         C  0.13014842  0.97929851  0.03093026    -0.23200
C55         C  0.94424095  0.05215183  0.04975558    -0.18600
C56         C  0.08422607  0.04736397  0.04490802    -0.18600
C57         C  0.08011232  0.94310138  0.04456742    -0.18600
C58         C  0.93955467  0.94793228  0.04508624    -0.18600
H59         H  0.98033350  0.10467688  0.06852666     0.14400
H60         H  0.05586377  0.10155560  0.06678183     0.14400
H61         H  0.96883493  0.89295519  0.06339006     0.14400
H62         H  0.04427060  0.89089028  0.06435886     0.14400
H63         H  0.86883701  0.03063650  0.03652995     0.12600
H64         H  0.86644717  0.97449410  0.03374717     0.12600
H65         H  0.15536909  0.02177817  0.02339354     0.12600
H66         H  0.15328122  0.96516697  0.02328046     0.12600
H67         H  0.01277856  0.02120942  0.03851248     0.25900
H68         H  0.01144512  0.97406600  0.03591341     0.25900
O69         O  0.17542251  0.25166691  0.48019802    -0.81200
O70         O  0.29266411  0.21905890  0.07746941    -0.65800
O71         O  0.22396474  0.25913224  0.02607571    -1.12400
C72         C  0.32345592  0.23794130  0.44848233     1.05700
O73         O  0.34202615  0.24360601  0.05855344    -0.79000
O74         O  0.34158901  0.27691720  0.00893601    -0.66600
Ni75       Ni  0.17194276  0.24678335  0.02411612     1.34900
C76         C  0.32241234  0.29666966  0.50335691     0.84500
O77         O  0.22604454  0.24642420  0.08844143    -0.79600
O78         O  0.16731337  0.24242657  0.06827145    -0.89900
C79         C  0.32583807  0.22964387  0.08028389     0.84000
O80         O  0.18228282  0.20701334  0.01846384    -0.68100
O81         O  0.34496865  0.22978978  0.47026827    -0.87400
C82         C  0.20406310  0.19100085  0.03388283     0.84900
C83         C  0.18952530  0.24468055  0.09118655     1.06400
H84         H  0.28175252  0.21180842  0.00877316     0.38200
O85         O  0.28588618  0.23138323  0.01519045    -1.10000
O86         O  0.28717955  0.29182929  0.49721691    -0.66700
Ni87       Ni  0.25930309  0.25644737  0.48909054     1.26300
O88         O  0.23205959  0.20094327  0.04906079    -0.66900
O89         O  0.29065540  0.24989905  0.45278700    -0.79200
C90         C  0.19231859  0.26698361  0.45990198     0.84300
O91         O  0.22496853  0.27810660  0.46452022    -0.66400
Ni92       Ni  0.34000317  0.23648149  0.01488527     1.27400
Ni93       Ni  0.25677927  0.23819275  0.05234939     1.26100
H94         H  0.22372649  0.27895537  0.03259592     0.38800
O95         O  0.72158955  0.32751432  0.03821155    -0.81200
O96         O  0.79125761  0.20620802  0.05472679    -0.65800
O97         O  0.77629365  0.28367227  0.02989156    -1.12400
C98         C  0.69143034  0.24065164  0.45524994     1.05700
O99         O  0.79026473  0.18586723  0.50824485    -0.79000
O100        O  0.79023201  0.22444099  0.46374002    -0.66600
Ni101      Ni  0.76570442  0.31319743  0.05931023     1.34900
C102        C  0.79522253  0.25059123  0.45712818     0.84500
O103        O  0.82148176  0.25538955  0.07253263    -0.79600
O104        O  0.80898345  0.30184245  0.08296982    -0.89900
C105        C  0.80170532  0.18720875  0.03519242     0.84000
O106        O  0.73147288  0.29256569  0.08609651    -0.68100
O107        O  0.71226797  0.21834910  0.45775346    -0.87400
C108        C  0.72605875  0.26607629  0.09087363     0.84900
C109        C  0.82754757  0.27863690  0.08718406     1.06400
H110        H  0.71994883  0.23277249  0.02606072     0.38200
O111        O  0.74186060  0.23419464  0.51450067    -1.10000
O112        O  0.77319801  0.27076211  0.46711621    -0.66700
Ni113      Ni  0.73409046  0.27256952  0.50012565     1.26300
O114        O  0.74428287  0.24654476  0.07600956    -0.66900
O115        O  0.69479214  0.26255130  0.47239276    -0.79200
C116        C  0.71677106  0.33198605  0.00966202     0.84300
O117        O  0.72523486  0.31180122  0.48924933    -0.66400
Ni118      Ni  0.75091165  0.20433345  0.48496354     1.27400
Ni119      Ni  0.78307373  0.24535286  0.04358060     1.26100
H120        H  0.79982231  0.28912988  0.01919014     0.38800
O121        O  0.78338775  0.82011769  0.49028541    -0.81200
O122        O  0.70245331  0.70135104  0.46969342    -0.65800
O123        O  0.72698088  0.77727733  0.49597861    -1.12400
C124        C  0.81530998  0.72644214  0.05924186     1.05700
O125        O  0.69990851  0.68699616  0.01899920    -0.79000
O126        O  0.72602955  0.71601866  0.06776079    -0.66600
Ni127      Ni  0.74006970  0.80630092  0.46702683     1.34900
C128        C  0.71649066  0.74188580  0.07315906     0.84500
O129        O  0.67520866  0.75309345  0.45542159    -0.79600
O130        O  0.69740932  0.79624330  0.44112742    -0.89900
C131        C  0.69300355  0.68092182  0.99110504     0.84000
O132        O  0.77468885  0.78370257  0.44210680    -0.68100
O133        O  0.79954565  0.70323881  0.05048646    -0.87400
C134        C  0.77386902  0.75756877  0.43381536     0.84900
C135        C  0.67358145  0.77556151  0.43894282     1.06400
H136        H  0.77865244  0.72199855  0.99356865     0.38200
O137        O  0.75648597  0.72695915  0.00640244    -1.10000
O138        O  0.72692935  0.76234500  0.05552201    -0.66700
Ni139      Ni  0.76579299  0.76404889  0.02258004     1.26300
O140        O  0.75097190  0.73947361  0.44615273    -0.66900
O141        O  0.80432251  0.75127606  0.05070515    -0.79200
C142        C  0.78929756  0.82070852  0.01660956     0.84300
O143        O  0.77585923  0.80235990  0.03545246    -0.66400
Ni144      Ni  0.74999140  0.69604883  0.03386699     1.27400
Ni145      Ni  0.71524025  0.73986762  0.48115322     1.26100
H146        H  0.70470988  0.78234829  0.00607162     0.38800
O147        O  0.32554551  0.74939730  0.04002983    -0.81200
O148        O  0.20916545  0.71887451  0.43842023    -0.65800
O149        O  0.27072992  0.75948333  0.99520483    -1.12400
C150        C  0.17707616  0.73052182  0.07099676     1.05700
O151        O  0.15388023  0.73508283  0.45882192    -0.79000
O152        O  0.15450393  0.76876438  0.00632388    -0.66600
Ni153      Ni  0.32515076  0.75462394  0.99595990     1.34900
C154        C  0.17607755  0.78884663  0.01567936     0.84500
O155        O  0.27262650  0.74968437  0.43009579    -0.79600
O156        O  0.32989436  0.76031481  0.45063486    -0.89900
C157        C  0.17355091  0.72434969  0.43650627     0.84000
O158        O  0.32745693  0.71386469  0.99122156    -0.68100
O159        O  0.15553437  0.72479099  0.04843538    -0.87400
C160        C  0.30307119  0.69649015  0.47839092     0.84900
C161        C  0.30790567  0.75720214  0.42763064     1.06400
H162        H  0.21975412  0.70686522  0.00854080     0.38200
O163        O  0.21332542  0.72643961  0.00367321    -1.10000
O164        O  0.20971604  0.78441920  0.02619704    -0.66700
Ni165      Ni  0.24131191  0.75022588  0.03157957     1.26300
O166        O  0.27034087  0.70368678  0.46828912    -0.66900
O167        O  0.21119101  0.74019661  0.06766256    -0.79200
C168        C  0.30863789  0.76446746  0.06087908     0.84300
O169        O  0.27378210  0.77236006  0.05791408    -0.66400
Ni170      Ni  0.15832461  0.72800531  0.00426596     1.27400
Ni171      Ni  0.24168361  0.73914376  0.46558801     1.26100
H172        H  0.26626398  0.77937240  0.99036411     0.38800
O173        O  0.95546843  0.24021544  0.31374145    -0.74700
O174        O  0.03155802  0.22290425  0.25129345    -0.74700
O175        O  0.03182212  0.23001402  0.31330849    -0.74800
O176        O  0.95563945  0.23274176  0.25177245    -0.74800
O177        O  0.96775983  0.27909531  0.24461266    -0.74800
O178        O  0.04167922  0.27694155  0.30881229    -0.74700
O179        O  0.04422059  0.26950540  0.24672728    -0.74700
O180        O  0.96438793  0.28703864  0.30669385    -0.74800
Ni181      Ni  0.99321173  0.22985632  0.28285580     1.25400
Ni182      Ni  0.00488739  0.27987370  0.27657491     1.25400
C183        C  0.94723588  0.26632780  0.32040429     0.87500
C184        C  0.04991422  0.24345039  0.23830590     0.87400
C185        C  0.04927086  0.25285287  0.32137787     0.87500
C186        C  0.95028764  0.25603292  0.23710770     0.87600
O187        O  0.01571998  0.69404334  0.22702658    -0.74700
O188        O  0.93238383  0.71077435  0.28501717    -0.74700
O189        O  0.94121791  0.70872391  0.22216593    -0.74800
O190        O  0.00721638  0.69568400  0.28996904    -0.74800
O191        O  0.02451034  0.74166714  0.28904842    -0.74800
O192        O  0.95745476  0.75486551  0.22185516    -0.74700
O193        O  0.94953464  0.75667053  0.28426044    -0.74700
O194        O  0.03211275  0.74014832  0.22696694    -0.74800
Ni195      Ni  0.97353708  0.70062719  0.25610596     1.25400
Ni196      Ni  0.99140973  0.74994786  0.25560949     1.25400
C197        C  0.03693308  0.71455954  0.21683291     0.87500
C198        C  0.92757314  0.73668323  0.29445589     0.87400
C199        C  0.93936156  0.73369475  0.21023246     0.87500
C200        C  0.02664871  0.71658714  0.30063660     0.87600
O201        O  0.54807509  0.76030591  0.21749036    -0.74700
O202        O  0.46171261  0.76180217  0.27463610    -0.74700
O203        O  0.47081382  0.75606965  0.21249108    -0.74800
O204        O  0.53870917  0.76588776  0.27959450    -0.74800
O205        O  0.53710616  0.81322221  0.27344550    -0.74800
O206        O  0.46413134  0.80338369  0.20841898    -0.74700
O207        O  0.45956992  0.80939477  0.27123582    -0.74700
O208        O  0.54252561  0.80736033  0.21075159    -0.74800
Ni209      Ni  0.50496433  0.75937942  0.24616788     1.25400
Ni210      Ni  0.50065024  0.81006557  0.24070028     1.25400
C211        C  0.55931055  0.78344660  0.20432223     0.87500
C212        C  0.44745587  0.78599056  0.28329363     0.87400
C213        C  0.45620810  0.77791205  0.19934127     0.87500
C214        C  0.54875352  0.79105697  0.28794850     0.87600
O215        O  0.55631481  0.22006012  0.22865138    -0.74700
O216        O  0.47714350  0.20134719  0.28863435    -0.74700
O217        O  0.47845252  0.21394059  0.22771240    -0.74800
O218        O  0.55454008  0.20731412  0.28983867    -0.74800
O219        O  0.54557532  0.25337061  0.30188088    -0.74800
O220        O  0.47313544  0.26071138  0.23790730    -0.74700
O221        O  0.46865346  0.24797686  0.29816744    -0.74700
O222        O  0.54997229  0.26619693  0.24120252    -0.74800
Ni223      Ni  0.51692121  0.20895327  0.25823827     1.25400
Ni224      Ni  0.50912203  0.25866086  0.27019603     1.25400
C225        C  0.56625383  0.24630885  0.22510613     0.87500
C226        C  0.45972605  0.22181719  0.30308818     0.87400
C227        C  0.46368898  0.23856387  0.22241621     0.87500
C228        C  0.56179367  0.22918496  0.30667391     0.87600
C229        C  0.33019835  0.77096272  0.08931218    -0.05500
C230        C  0.31960450  0.79349854  0.10947464    -0.05400
C231        C  0.34223905  0.80004250  0.13505967    -0.23600
C232        C  0.37553411  0.78389991  0.14112660     0.18600
C233        C  0.38556473  0.76076266  0.12133700     0.15800
C234        C  0.36318371  0.75465095  0.09570249    -0.18600
C235        C  0.41794562  0.74394302  0.12734952    -0.20500
C236        C  0.44032324  0.74981657  0.15280877    -0.13000
C237        C  0.43136701  0.77295273  0.17255056     0.03700
C238        C  0.39894742  0.79019299  0.16652671    -0.25200
H239        H  0.29435546  0.80641025  0.10509030     0.08700
H240        H  0.33378564  0.81775371  0.15001146     0.12300
H241        H  0.37158307  0.73697079  0.08064532     0.12300
H242        H  0.42592066  0.72610382  0.11239689     0.12000
H243        H  0.46517548  0.73636175  0.15687909     0.12600
H244        H  0.39160251  0.80792446  0.18182175     0.14500
C245        C  0.32521349  0.76149996  0.39652440    -0.05500
C246        C  0.31986783  0.74100707  0.37319555    -0.05400
C247        C  0.34134812  0.74227790  0.34547762    -0.23600
C248        C  0.36794362  0.76443175  0.34039812     0.18600
C249        C  0.37143646  0.78623756  0.36291934     0.15800
C250        C  0.35050869  0.78440426  0.39097965    -0.18600
C251        C  0.39680526  0.80901040  0.35743760    -0.20500
C252        C  0.41980993  0.80955737  0.33057093    -0.13000
C253        C  0.41852703  0.78707377  0.30895830     0.03700
C254        C  0.39197199  0.76473506  0.31374544    -0.25200
H255        H  0.30058153  0.72314697  0.37708451     0.08700
H256        H  0.33786895  0.72555221  0.32836435     0.12300
H257        H  0.35452359  0.80041306  0.40881484     0.12300
H258        H  0.39953406  0.82607167  0.37427377     0.12000
H259        H  0.44008826  0.82691973  0.32742868     0.12600
H260        H  0.39053806  0.74742014  0.29705989     0.14500
C261        C  0.06566879  0.70937758  0.19154983    -0.05500
C262        C  0.05958616  0.68757768  0.16976416    -0.05400
C263        C  0.08212524  0.68599344  0.14261810    -0.23600
C264        C  0.11148736  0.70598380  0.13694675     0.18600
C265        C  0.11965045  0.72674103  0.15968479     0.15800
C266        C  0.09656047  0.72842393  0.18673364    -0.18600
C267        C  0.14969168  0.74624877  0.15435585    -0.20500
C268        C  0.17007833  0.74620897  0.12612710    -0.13000
C269        C  0.16042875  0.72696407  0.10254864     0.03700
C270        C  0.13169592  0.70636464  0.10845276    -0.25200
H271        H  0.03594621  0.67273304  0.17287029     0.08700
H272        H  0.07571866  0.66973208  0.12559378     0.12300
H273        H  0.10172191  0.74520907  0.20349299     0.12300
H274        H  0.15662111  0.76213417  0.17164434     0.12000
H275        H  0.19200845  0.76228099  0.12212991     0.12600
H276        H  0.12425692  0.69122749  0.09052425     0.14500
C277        C  0.15422084  0.71999159  0.40713372    -0.05500
C278        C  0.17085418  0.73026930  0.37960148    -0.05400
C279        C  0.14957533  0.73066097  0.35264757    -0.23600
C280        C  0.11170390  0.72027758  0.35285769     0.18600
C281        C  0.09575909  0.70817769  0.38009078     0.15800
C282        C  0.11699224  0.70842656  0.40713400    -0.18600
C283        C  0.05837195  0.69691970  0.38007007    -0.20500
C284        C  0.03642398  0.69856041  0.35357770    -0.13000
C285        C  0.05130951  0.71200693  0.32709329     0.03700
C286        C  0.08909489  0.72250698  0.32663004    -0.25200
H287        H  0.19950826  0.73938413  0.37936094     0.08700
H288        H  0.16234254  0.73973179  0.33189166     0.12300
H289        H  0.10426222  0.70032025  0.42840387     0.12300
H290        H  0.04588130  0.68736309  0.40067168     0.12000
H291        H  0.00723912  0.69041207  0.35414019     0.12600
H292        H  0.10063359  0.73263363  0.30598241     0.14500
C293        C  0.64388045  0.77691453  0.41489220    -0.05500
C294        C  0.61841062  0.75387428  0.41113814    -0.05400
C295        C  0.59426057  0.75267108  0.38594188    -0.23600
C296        C  0.59496120  0.77450089  0.36396871     0.18600
C297        C  0.61890786  0.79852366  0.36810050     0.15800
C298        C  0.64312577  0.79966795  0.39364402    -0.18600
C299        C  0.61889725  0.82051935  0.34612456    -0.20500
C300        C  0.59588945  0.81840632  0.32006232    -0.13000
C301        C  0.57295490  0.79411116  0.31541039     0.03700
C302        C  0.57247989  0.77237898  0.33767774    -0.25200
H303        H  0.61802908  0.73615617  0.42713066     0.08700
H304        H  0.57570308  0.73426922  0.38324097     0.12300
H305        H  0.66236837  0.81769077  0.39625002     0.16700
H306        H  0.63692169  0.83919278  0.34893916     0.12000
H307        H  0.59651993  0.83549947  0.30330358     0.12600
H308        H  0.55439054  0.75375096  0.33462730     0.14500
C309        C  0.59145181  0.78219910  0.18089858    -0.05500
C310        C  0.59953497  0.80558130  0.16148010    -0.05400
C311        C  0.62725635  0.80325517  0.13747549    -0.23600
C312        C  0.64749958  0.77748605  0.13236687     0.18600
C313        C  0.64082928  0.75437837  0.15268761     0.15800
C314        C  0.61314112  0.75689515  0.17674261    -0.18600
C315        C  0.66103068  0.72868410  0.14807305    -0.20500
C316        C  0.68616592  0.72529924  0.12275878    -0.13000
C317        C  0.69200033  0.74753311  0.10133451     0.03700
C318        C  0.67328513  0.77402394  0.10685401    -0.25200
H319        H  0.58358610  0.82544172  0.16423701     0.08700
H320        H  0.63211735  0.82137491  0.12242471     0.12300
H321        H  0.60775482  0.73877604  0.19171513     0.12300
H322        H  0.65666159  0.71086507  0.16363657     0.12000
H323        H  0.70058522  0.70483570  0.11970716     0.12600
H324        H  0.67767971  0.79149613  0.09084561     0.14500
C325        C  0.89712845  0.74415320  0.31793176    -0.05500
C326        C  0.88936883  0.77319269  0.32440703    -0.05400
C327        C  0.86344815  0.78123026  0.34792945    -0.23600
C328        C  0.84458260  0.76044244  0.36568486     0.18600
C329        C  0.85108027  0.73111057  0.35916163     0.15800
C330        C  0.87726945  0.72307598  0.33517587    -0.18600
C331        C  0.83165462  0.71050784  0.37710100    -0.20500
C332        C  0.80646574  0.71894391  0.40132470    -0.13000
C333        C  0.80041417  0.74814184  0.40823126     0.03700
C334        C  0.81957604  0.76870140  0.39003482    -0.25200
H335        H  0.90383934  0.78992994  0.31149759     0.08700
H336        H  0.85856578  0.80380828  0.35250696     0.12300
H337        H  0.88288434  0.70060003  0.33052172     0.12300
H338        H  0.83606970  0.68788954  0.37250847     0.12000
H339        H  0.79198804  0.70260205  0.41482060     0.12600
H340        H  0.81497852  0.79130257  0.39471505     0.14500
C341        C  0.91738142  0.73772245  0.18189868    -0.05500
C342        C  0.90570720  0.76515386  0.17272249    -0.05400
C343        C  0.88571883  0.76881043  0.14541229    -0.23600
C344        C  0.87748064  0.74511129  0.12671998     0.18600
C345        C  0.89004060  0.71755685  0.13542301     0.15800
C346        C  0.90966318  0.71403014  0.16296922    -0.18600
C347        C  0.88217889  0.69386633  0.11672357    -0.20500
C348        C  0.86014584  0.69715741  0.09051843    -0.13000
C349        C  0.84565814  0.72421970  0.08247429     0.03700
C350        C  0.85570882  0.74832544  0.10011067    -0.25200
H351        H  0.91171783  0.78374678  0.18682211     0.08700
H352        H  0.87642505  0.79010796  0.13905667     0.12300
H353        H  0.91919509  0.69282943  0.16953489     0.12300
H354        H  0.89197055  0.67264424  0.12291058     0.12000
H355        H  0.85304718  0.67823724  0.07729494     0.12600
H356        H  0.84469488  0.76931455  0.09426996     0.14500
C357        C  0.69728510  0.25754564  0.11494869    -0.05500
C358        C  0.68701684  0.22862777  0.11863250    -0.05400
C359        C  0.65970420  0.22053815  0.14110342    -0.23600
C360        C  0.64216133  0.24117904  0.16044532     0.18600
C361        C  0.65253816  0.27025623  0.15719416     0.15800
C362        C  0.67990439  0.27824556  0.13453631    -0.18600
C363        C  0.63520770  0.29092770  0.17655332    -0.20500
C364        C  0.60752394  0.28296297  0.19868881    -0.13000
C365        C  0.59656787  0.25414233  0.20202043     0.03700
C366        C  0.61427314  0.23328359  0.18282727    -0.25200
H367        H  0.69991752  0.21218489  0.10397009     0.08700
H368        H  0.65220568  0.19813329  0.14326605     0.12300
H369        H  0.68762057  0.30060829  0.13220457     0.12300
H370        H  0.64288281  0.31330964  0.17446238     0.12000
H371        H  0.59450869  0.29952605  0.21312604     0.12600
H372        H  0.60618087  0.21099363  0.18509223     0.14500
C373        C  0.58834913  0.22656640  0.33257406    -0.05500
C374        C  0.61166079  0.20214580  0.33580257    -0.05400
C375        C  0.63593983  0.19965168  0.36091665    -0.23600
C376        C  0.63700783  0.22144346  0.38328247     0.18600
C377        C  0.61341373  0.24593714  0.38028648     0.15800
C378        C  0.58948095  0.24839484  0.35495335    -0.18600
C379        C  0.61415471  0.26767439  0.40262934    -0.20500
C380        C  0.63871815  0.26551369  0.42746870    -0.13000
C381        C  0.66296985  0.24154467  0.43044711     0.03700
C382        C  0.66154465  0.21934816  0.40838882    -0.25200
H383        H  0.61119857  0.18501171  0.31888402     0.08700
H384        H  0.65383067  0.18070710  0.36285371     0.12300
H385        H  0.57137423  0.26723018  0.35290641     0.12300
H386        H  0.59607094  0.28652228  0.40070437     0.12000
H387        H  0.63915867  0.28291259  0.44407771     0.12600
H388        H  0.68010275  0.20074795  0.41031006     0.14500
C389        C  0.92523631  0.25578139  0.21015155    -0.05500
C390        C  0.90893676  0.22997154  0.19997432    -0.05400
C391        C  0.88824943  0.22902958  0.17282326    -0.23600
C392        C  0.88341059  0.25389992  0.15546298     0.18600
C393        C  0.89923266  0.28003020  0.16571870     0.15800
C394        C  0.92001192  0.28080232  0.19295675    -0.18600
C395        C  0.89387580  0.30500683  0.14862750    -0.20500
C396        C  0.87201152  0.30428841  0.12208895    -0.13000
C397        C  0.85570707  0.27850029  0.11197404     0.03700
C398        C  0.86224904  0.25321480  0.12840784    -0.25200
H399        H  0.91276460  0.21032150  0.21269020     0.08700
H400        H  0.87616222  0.20885470  0.16536362     0.12300
H401        H  0.93251320  0.30081415  0.20049997     0.12300
H402        H  0.90584598  0.32519666  0.15615080     0.12000
H403        H  0.86711694  0.32405262  0.10981686     0.12600
H404        H  0.84920998  0.23331703  0.12106974     0.14500
C405        C  0.91842052  0.27196727  0.34510040    -0.05500
C406        C  0.88783135  0.29137326  0.34153459    -0.05400
C407        C  0.85819584  0.29329835  0.36410287    -0.23600
C408        C  0.85918620  0.27605472  0.39056371     0.18600
C409        C  0.89127496  0.25777079  0.39470023     0.15800
C410        C  0.92039314  0.25585417  0.37204363    -0.18600
C411        C  0.89315489  0.24059044  0.42082031    -0.20500
C412        C  0.86246166  0.24001086  0.44184911    -0.13000
C413        C  0.82928588  0.25667369  0.43736390     0.03700
C414        C  0.82820224  0.27559683  0.41224677    -0.25200
H415        H  0.88601980  0.30402502  0.32077276     0.08700
H416        H  0.83408078  0.30758894  0.36046164     0.12300
H417        H  0.94428527  0.24112773  0.37495737     0.12300
H418        H  0.91775956  0.22673742  0.42440555     0.12000
H419        H  0.86403926  0.22556740  0.46124723     0.12600
H420        H  0.80262901  0.28842239  0.40860421     0.14500
C421        C  0.42983034  0.21576335  0.32670317    -0.05500
C422        C  0.43295567  0.19185251  0.34593896    -0.05400
C423        C  0.40961917  0.18972510  0.37254605    -0.23600
C424        C  0.38286632  0.21143973  0.38003746     0.18600
C425        C  0.37729397  0.23419165  0.35924365     0.15800
C426        C  0.40073541  0.23613512  0.33269412    -0.18600
C427        C  0.35013210  0.25565621  0.36631940    -0.20500
C428        C  0.33065767  0.25576227  0.39479932    -0.13000
C429        C  0.33831877  0.23454011  0.41662844     0.03700
C430        C  0.36335391  0.21179939  0.40870548    -0.25200
H431        H  0.45511917  0.17585379  0.34153460     0.08700
H432        H  0.41383334  0.17190190  0.38800066     0.12300
H433        H  0.39781792  0.25439099  0.31757413     0.12300
H434        H  0.34525422  0.27305279  0.35043928     0.12000
H435        H  0.31134399  0.27340142  0.40047177     0.12600
H436        H  0.36890783  0.19514358  0.42535276     0.14500
C437        C  0.43658185  0.24196006  0.19731527    -0.05500
C438        C  0.43711886  0.26738868  0.18027710    -0.05400
C439        C  0.41441726  0.27021003  0.15448782    -0.23600
C440        C  0.39034661  0.24780598  0.14572171     0.18600
C441        C  0.38785811  0.22270637  0.16373532     0.15800
C442        C  0.41141901  0.21979164  0.18935761    -0.18600
C443        C  0.36254001  0.20081106  0.15529416    -0.20500
C444        C  0.34111557  0.20334089  0.12853211    -0.13000
C445        C  0.34536664  0.22753849  0.10975798     0.03700
C446        C  0.36941844  0.24990671  0.11878711    -0.25200
H447        H  0.45630243  0.28470253  0.18621046     0.08700
H448        H  0.41624507  0.28967599  0.14106974     0.12300
H449        H  0.41053037  0.20032296  0.20284337     0.12300
H450        H  0.35983534  0.18160252  0.16904177     0.12000
H451        H  0.32230114  0.18602200  0.12193087     0.12600
H452        H  0.37208201  0.26891412  0.10465106     0.14500
C453        C  0.07824730  0.25098053  0.34569202    -0.05500
C454        C  0.08381271  0.22477731  0.36077721    -0.05400
C455        C  0.10975970  0.22257631  0.38457001    -0.23600
C456        C  0.13059883  0.24655229  0.39382340     0.18600
C457        C  0.12633605  0.27289991  0.37842339     0.15800
C458        C  0.10008753  0.27496864  0.35433364    -0.18600
C459        C  0.14767122  0.29675993  0.38804525    -0.20500
C460        C  0.17144612  0.29478649  0.41367909    -0.13000
C461        C  0.17388667  0.26897026  0.42985841     0.03700
C462        C  0.15446766  0.24475849  0.41912204    -0.25200
H463        H  0.06761743  0.20592674  0.35454044     0.08700
H464        H  0.11292863  0.20223694  0.39616712     0.12300
H465        H  0.09624907  0.29523769  0.34274355     0.12300
H466        H  0.14501119  0.31710064  0.37639866     0.12000
H467        H  0.18627615  0.31365457  0.42174913     0.12600
H468        H  0.15674883  0.22464379  0.43136036     0.14500
C469        C  0.07621020  0.23721074  0.21197580    -0.05500
C470        C  0.06708051  0.21526870  0.19114092    -0.05400
C471        C  0.08849249  0.21162907  0.16375286    -0.23600
C472        C  0.11984198  0.22954349  0.15708463     0.18600
C473        C  0.13061651  0.25063003  0.17873989     0.15800
C474        C  0.10838210  0.25459146  0.20589299    -0.18600
C475        C  0.16284318  0.26785699  0.17244618    -0.20500
C476        C  0.18333674  0.26495081  0.14445135    -0.13000
C477        C  0.17134926  0.24524677  0.12215746     0.03700
C478        C  0.13997748  0.22724136  0.12879645    -0.25200
H479        H  0.04222169  0.20177826  0.19536009     0.08700
H480        H  0.08005754  0.19521127  0.14752145     0.12300
H481        H  0.11567064  0.27143368  0.22202292     0.12300
H482        H  0.17174838  0.28391507  0.18890826     0.12000
H483        H  0.20750759  0.27895070  0.13964680     0.12600
H484        H  0.13097777  0.21172072  0.11173717     0.14500
C485        C  0.82758317  0.16324398  0.04417205    -0.05500
C486        C  0.84147640  0.16077204  0.07427057    -0.05400
C487        C  0.86674425  0.13842947  0.08183004    -0.23600
C488        C  0.87889846  0.11828180  0.05937588     0.18600
C489        C  0.86551635  0.12090948  0.02900842     0.15800
C490        C  0.83992233  0.14305248  0.02173752    -0.18600
C491        C  0.87815041  0.10147504  0.00617291    -0.20500
C492        C  0.90392259  0.07961627  0.01323728    -0.13000
C493        C  0.91702779  0.07625512  0.04338919     0.03700
C494        C  0.90422906  0.09564797  0.06653838    -0.25200
H495        H  0.83294309  0.17615763  0.09194673     0.08700
H496        H  0.87694597  0.13701232  0.10518663     0.12300
H497        H  0.82995812  0.14467106  0.99831080     0.12300
H498        H  0.87299260  0.10517654  0.48331703     0.12000
H499        H  0.91353482  0.06501175  0.99511569     0.12600
H500        H  0.91417438  0.09319030  0.08987487     0.14500
C501        C  0.19409356  0.16005929  0.03594316    -0.05500
C502        C  0.20537103  0.14358827  0.06129261    -0.05400
C503        C  0.18898164  0.11661507  0.06686641    -0.23600
C504        C  0.16100611  0.10558820  0.04718756     0.18600
C505        C  0.15144640  0.12119715  0.02056488     0.15800
C506        C  0.16819778  0.14806413  0.01502547    -0.18600
C507        C  0.12356389  0.11050999  0.00075932    -0.20500
C508        C  0.10373331  0.08545650  0.00807194    -0.13000
C509        C  0.11142991  0.07045190  0.03520205     0.03700
C510        C  0.14095152  0.08011830  0.05435803    -0.25200
H511        H  0.22516588  0.15225275  0.07783695     0.08700
H512        H  0.19697937  0.10495477  0.08727929     0.12300
H513        H  0.15937601  0.16035179  0.99524928     0.12300
H514        H  0.11595351  0.12215230  0.98022921     0.12000
H515        H  0.08093920  0.07838456  0.99321444     0.12600
H516        H  0.14672574  0.06875991  0.07547946     0.14500
C517        C  0.16004576  0.81853171  0.01422871    -0.05500
C518        C  0.13018820  0.82423507  0.99366809    -0.05400
C519        C  0.11119365  0.85063506  0.99387442    -0.23600
C520        C  0.12116478  0.87201506  0.01493551     0.18600
C521        C  0.15187318  0.86721023  0.03515503     0.15800
C522        C  0.17156831  0.84057221  0.03441222    -0.18600
C523        C  0.16109918  0.88874280  0.05654134    -0.20500
C524        C  0.13893172  0.91398038  0.05886696    -0.13000
C525        C  0.10748860  0.91837911  0.03954741     0.03700
C526        C  0.09974930  0.89761740  0.01690507    -0.25200
H527        H  0.12088562  0.80794122  0.97763224     0.08700
H528        H  0.08782540  0.85399343  0.97813922     0.12300
H529        H  0.19437665  0.83653989  0.05048505     0.12300
H530        H  0.18459009  0.88564090  0.07220371     0.12000
H531        H  0.14548125  0.92964787  0.07646322     0.12600
H532        H  0.07567257  0.90085830  0.00180326     0.14500
C533        C  0.91034507  0.92613738  0.03620485    -0.05500
C534        C  0.89840762  0.92520244  0.00550375    -0.05400
C535        C  0.88050768  0.90058108  0.49725334    -0.23600
C536        C  0.85590714  0.88536089  0.01702109     0.18600
C537        C  0.86760547  0.88597258  0.04802355     0.15800
C538        C  0.89434600  0.90669682  0.05758793    -0.18600
C539        C  0.85268634  0.86559092  0.06869823    -0.20500
C540        C  0.82687704  0.84465399  0.05868291    -0.13000
C541        C  0.81515958  0.84377894  0.02782717     0.03700
C542        C  0.82965121  0.86455046  0.00724836    -0.25200
H543        H  0.92184323  0.93395253  0.48989724     0.08700
H544        H  0.87600682  0.89781125  0.47278147     0.12300
H545        H  0.90310858  0.90749953  0.08139622     0.12300
H546        H  0.86138704  0.86558024  0.09252353     0.12000
H547        H  0.81645832  0.82890975  0.07505838     0.12600
H548        H  0.83040340  0.85972529  0.48452013     0.14500
C549        C  0.59134792  0.42277702  0.95576745    -0.05500
C550        C  0.60299365  0.40540888  0.43219234    -0.05400
C551        C  0.63377957  0.38483712  0.93602373    -0.23600
C552        C  0.64892042  0.38103975  0.96554527     0.18600
C553        C  0.63531455  0.39878344  0.99006000     0.15800
C554        C  0.60666583  0.41929091  0.98504429    -0.18600
C555        C  0.65024112  0.39568320  0.01944042    -0.20500
C556        C  0.67766646  0.37468960  0.02495155    -0.13000
C557        C  0.69081508  0.35601380  0.00130809     0.03700
C558        C  0.67676512  0.35964622  0.97129602    -0.25200
H559        H  0.59100045  0.40801760  0.40955400     0.08700
H560        H  0.63800723  0.36929741  0.41812364     0.12300
H561        H  0.59610439  0.43268246  0.00396728     0.12300
H562        H  0.64029557  0.40927771  0.03836629     0.12000
H563        H  0.68799972  0.37275039  0.04821310     0.12600
H564        H  0.68655864  0.34548021  0.95281787     0.14500
C565        C  0.39376410  0.42412288  0.47864513    -0.05500
C566        C  0.36420000  0.41920984  0.45771353    -0.05400
C567        C  0.34154486  0.39441734  0.45977908    -0.23600
C568        C  0.34830066  0.37393941  0.48268963     0.18600
C569        C  0.37706896  0.37939458  0.50454710     0.15800
C570        C  0.39595114  0.40303104  0.00501301    -0.18600
C571        C  0.37725969  0.35863044  0.03046941    -0.20500
C572        C  0.35704639  0.33283016  0.03035699    -0.13000
C573        C  0.33748657  0.32646731  0.50510284     0.03700
C574        C  0.32822715  0.34758639  0.48333538    -0.25200
H575        H  0.35983874  0.43395184  0.43892387     0.08700
H576        H  0.31973828  0.39075076  0.44275406     0.12300
H577        H  0.41818548  0.40640270  0.02178419     0.12300
H578        H  0.39809177  0.36237601  0.04825421     0.12000
H579        H  0.36303910  0.31721677  0.04801037     0.12600
H580        H  0.30719965  0.34289476  0.46594947     0.14500
C581        C  0.31596152  0.66618688  0.47544359    -0.05500
C582        C  0.30420304  0.64906266  0.45061335    -0.05400
C583        C  0.32069426  0.62195196  0.44529238    -0.23600
C584        C  0.34900623  0.61134474  0.46487865     0.18600
C585        C  0.36179362  0.62717177  0.99277822     0.15800
C586        C  0.34298199  0.65502551  0.49589353    -0.18600
C587        C  0.39064042  0.61719614  0.01212235    -0.20500
C588        C  0.40830476  0.59072167  0.00641593    -0.13000
C589        C  0.39762711  0.57557717  0.47755442     0.03700
C590        C  0.36813916  0.58519194  0.45840163    -0.25200
H591        H  0.28353027  0.65718335  0.43447437     0.08700
H592        H  0.31209863  0.60964716  0.42536647     0.12300
H593        H  0.35690889  0.66846812  0.01512431     0.12300
H594        H  0.40053238  0.63032591  0.03100958     0.12000
H595        H  0.43196179  0.58412498  0.02063901     0.12600
H596        H  0.36146669  0.57303420  0.43785829     0.14500
C597        C  0.67228123  0.65373340  0.98468080    -0.05500
C598        C  0.66768266  0.63378509  0.00871651    -0.05400
C599        C  0.64688474  0.60867731  0.00464093    -0.23600
C600        C  0.63000722  0.60276408  0.97640076     0.18600
C601        C  0.63897038  0.62118581  0.45361132     0.15800
C602        C  0.66475943  0.64414089  0.45746175    -0.18600
C603        C  0.64386874  0.60138637  0.42926244    -0.20500
C604        C  0.61857004  0.57819345  0.42639059    -0.13000
C605        C  0.58871766  0.57266773  0.94521787     0.03700
C606        C  0.60690603  0.57841258  0.97308758    -0.25200
H607        H  0.67990346  0.63769296  0.03109020     0.08700
H608        H  0.64343811  0.59409294  0.02383836     0.12300
H609        H  0.68903854  0.64676724  0.44157510     0.12300
H610        H  0.66735154  0.60373616  0.41259207     0.12000
H611        H  0.62271816  0.56318135  0.40746965     0.12600
H612        H  0.60181274  0.56438489  0.99258612     0.14500
N613        N  0.49116572  0.54041911  0.95688662    -0.36900
N614        N  0.43219793  0.49900248  0.46714265    -0.57400
N615        N  0.49220283  0.45521791  0.46167449    -0.36900
N616        N  0.55099202  0.49818834  0.44705083    -0.57400
C617        C  0.45882890  0.55671044  0.95756295     0.26700
C618        C  0.52021690  0.55675440  0.94529346     0.26700
C619        C  0.46021096  0.43864815  0.46237403     0.26700
C620        C  0.52243253  0.43825584  0.45309233     0.26700
C621        C  0.41196354  0.52080662  0.97850675     0.35300
C622        C  0.41176000  0.47623639  0.47741324     0.35300
C623        C  0.57285625  0.52030224  0.94589974     0.35300
C624        C  0.57411467  0.47530967  0.45168070     0.35300
C625        C  0.46732102  0.58359584  0.94588666    -0.22200
C626        C  0.50593908  0.58370304  0.93838624    -0.22200
C627        C  0.47035429  0.41085718  0.45393467    -0.22200
C628        C  0.50951235  0.41055088  0.44843776    -0.22200
C629        C  0.37821520  0.51299155  0.99387323    -0.23200
C630        C  0.37806755  0.48554173  0.49213714    -0.23200
C631        C  0.61118609  0.51199291  0.94663702    -0.23200
C632        C  0.61188788  0.48423261  0.45487956    -0.23200
C633        C  0.42301389  0.54932409  0.97172935    -0.18600
C634        C  0.55981419  0.54905454  0.94418968    -0.18600
C635        C  0.56174730  0.44644436  0.45253810    -0.18600
C636        C  0.42270281  0.44721470  0.47279230    -0.18600
H637        H  0.44797080  0.60170439  0.94400008     0.14400
H638        H  0.52159675  0.60201201  0.92970133     0.14400
H639        H  0.45167565  0.39241861  0.45262982     0.14400
H640        H  0.52650063  0.39182939  0.44225645     0.14400
H641        H  0.35610273  0.52706816  0.00345044     0.12600
H642        H  0.35577914  0.47244222  0.50263400     0.12600
H643        H  0.63633964  0.52560136  0.94585379     0.12600
H644        H  0.63707445  0.47104482  0.45848119     0.12600
H645        H  0.49433506  0.52110776  0.96819168     0.25900
H646        H  0.49420580  0.47584208  0.47043565     0.25900
N647        N  0.01386211  0.04185476  0.55100584    -0.36900
N648        N  0.95230285  0.99965154  0.55245980    -0.57400
N649        N  0.01120543  0.95550306  0.54963556    -0.36900
N650        N  0.07355800  0.99782449  0.55110384    -0.57400
C651        C  0.98295366  0.05903681  0.55693191     0.26700
C652        C  0.04588311  0.05789237  0.55447253     0.26700
C653        C  0.97908952  0.93969102  0.55502682     0.26700
C654        C  0.04200986  0.93878611  0.55576334     0.26700
C655        C  0.93104674  0.02342069  0.54741825     0.35300
C656        C  0.92987743  0.97703358  0.54536760     0.35300
C657        C  0.09570754  0.02054608  0.54295989     0.35300
C658        C  0.09437789  0.97391407  0.54426102     0.35300
C659        C  0.99562644  0.08621140  0.56472942    -0.22200
C660        C  0.03519670  0.08543354  0.56336930    -0.22200
C661        C  0.98954335  0.91273818  0.56510284    -0.22200
C662        C  0.02916365  0.91226606  0.56593219    -0.22200
C663        C  0.89439356  0.01577089  0.53835186    -0.23200
C664        C  0.89374140  0.98641157  0.53689149    -0.23200
C665        C  0.13120760  0.01104773  0.53171609    -0.23200
C666        C  0.13040767  0.98153093  0.53259270    -0.23200
C667        C  0.94404517  0.05192127  0.55132084    -0.18600
C668        C  0.08395233  0.04965370  0.54546050    -0.18600
C669        C  0.08109181  0.94539538  0.54836244    -0.18600
C670        C  0.94116315  0.94800607  0.54763041    -0.18600
H671        H  0.97836232  0.10508401  0.56964858     0.14400
H672        H  0.05398300  0.10350531  0.56710810     0.14400
H673        H  0.97072104  0.89499485  0.57059013     0.14400
H674        H  0.04661633  0.89400746  0.57209538     0.14400
H675        H  0.87053727  0.02980124  0.53321220     0.12600
H676        H  0.86933756  0.97348782  0.53053304     0.12600
H677        H  0.15497705  0.02398888  0.52334389     0.12600
H678        H  0.15344027  0.96733723  0.52488253     0.12600
H679        H  0.01314262  0.02198964  0.54025534     0.25900
H680        H  0.01224132  0.97468984  0.53768644     0.25900
O681        O  0.17070324  0.25029024  0.98020955    -0.81200
O682        O  0.29581094  0.21920807  0.57672460    -0.65800
O683        O  0.22890087  0.26176964  0.52594333    -1.12400
C684        C  0.32105624  0.23786148  0.94925992     1.05700
O685        O  0.34600302  0.24293066  0.55779620    -0.79000
O686        O  0.34645428  0.27678119  0.50846621    -0.66600
Ni687      Ni  0.17564804  0.25286374  0.52444814     1.34900
C688        C  0.31670326  0.29638597  0.00455599     0.84500
O689        O  0.23023026  0.24794861  0.58835590    -0.79600
O690        O  0.17108523  0.25327319  0.56870664    -0.89900
C691        C  0.32940979  0.22913989  0.57948980     0.84000
O692        O  0.17919625  0.21211697  0.52402044    -0.68100
O693        O  0.34213358  0.22958256  0.97124273    -0.87400
C694        C  0.20277405  0.19480391  0.53587034     0.84900
C695        C  0.19389843  0.25155237  0.59129802     1.06400
H696        H  0.28440945  0.21299475  0.50813629     0.38200
O697        O  0.28920910  0.23246712  0.51460130    -1.10000
O698        O  0.28157500  0.29087855  0.99867968    -0.66700
Ni699      Ni  0.25552892  0.25490381  0.98952647     1.26300
O700        O  0.23418579  0.20307268  0.54762689    -0.66900
O701        O  0.28798418  0.24951171  0.95339066    -0.79200
C702        C  0.18818035  0.26562037  0.96022904     0.84300
O703        O  0.22113046  0.27619019  0.96485837    -0.66400
Ni704      Ni  0.34346688  0.23634374  0.51403644     1.27400
Ni705      Ni  0.26055196  0.23954360  0.55193678     1.26100
H706        H  0.23067217  0.28152863  0.53246647     0.38800
O707        O  0.71696228  0.32403643  0.53814696    -0.81200
O708        O  0.79123310  0.20528039  0.55502676    -0.65800
O709        O  0.77332209  0.28173010  0.52837983    -1.12400
C710        C  0.69260214  0.24433767  0.95617070     1.05700
O711        O  0.79172984  0.18848814  0.00721716    -0.79000
O712        O  0.78766586  0.22554302  0.96131376    -0.66600
Ni713      Ni  0.76352516  0.31183018  0.55726814     1.34900
C714        C  0.79635376  0.25144042  0.95605367     0.84500
O715        O  0.82027068  0.25535475  0.57112183    -0.79600
O716        O  0.80928886  0.30245567  0.57877970    -0.89900
C717        C  0.80075534  0.18554343  0.53611753     0.84000
O718        O  0.73273411  0.29113172  0.58649254    -0.68100
O719        O  0.70950783  0.22053303  0.96066002    -0.87400
C720        C  0.72677421  0.26468937  0.59113088     0.84900
C721        C  0.82759065  0.27933724  0.58394437     1.06400
H722        H  0.71888446  0.22883187  0.52602386     0.38200
O723        O  0.74345715  0.23714199  0.01472526    -1.10000
O724        O  0.77852631  0.27274915  0.96842473    -0.66700
Ni725      Ni  0.73813797  0.27571230  0.00028207     1.26300
O726        O  0.74336843  0.24504288  0.57535000    -0.66900
O727        O  0.69990331  0.26703725  0.97109065    -0.79200
C728        C  0.71147228  0.32874137  0.50976448     0.84300
O729        O  0.73150362  0.31518274  0.98943150    -0.66400
Ni730      Ni  0.75020633  0.20656135  0.98578490     1.27400
Ni731      Ni  0.78171341  0.24389756  0.54278319     1.26100
H732        H  0.79626999  0.28723107  0.51690992     0.38800
O733        O  0.78263268  0.81907607  0.98780474    -0.81200
O734        O  0.70276990  0.69832828  0.96985376    -0.65800
O735        O  0.72693674  0.77530741  0.99444728    -1.12400
C736        C  0.81370865  0.72712881  0.56099943     1.05700
O737        O  0.69937041  0.68700263  0.51817404    -0.79000
O738        O  0.72377005  0.71610812  0.56719496    -0.66600
Ni739      Ni  0.73961828  0.80396073  0.96489279     1.34900
C740        C  0.71361139  0.74178955  0.57290281     0.84500
O741        O  0.67477511  0.75004081  0.95444293    -0.79600
O742        O  0.69711584  0.79293260  0.93935931    -0.89900
C743        C  0.68949088  0.68450487  0.49026233     0.84000
O744        O  0.77465876  0.78109925  0.94055638    -0.68100
O745        O  0.79824184  0.70410758  0.55137838    -0.87400
C746        C  0.77391048  0.75487328  0.93252207     0.84900
C747        C  0.67305613  0.77235460  0.93769396     1.06400
H748        H  0.77828847  0.72391766  0.49445137     0.38200
O749        O  0.75598333  0.72855332  0.50722692    -1.10000
O750        O  0.72521555  0.76283970  0.55652348    -0.66700
Ni751      Ni  0.76507949  0.76540227  0.52440171     1.26300
O752        O  0.75091077  0.73685874  0.94502277    -0.66900
O753        O  0.80281575  0.75212028  0.55294601    -0.79200
C754        C  0.78927945  0.82186891  0.51919084     0.84300
O755        O  0.77507931  0.80366639  0.53793979    -0.66400
Ni756      Ni  0.74920365  0.69682139  0.53366540     1.27400
Ni757      Ni  0.71525666  0.73747184  0.98028562     1.26100
H758        H  0.70452813  0.78426610  0.50751085     0.38800
O759        O  0.32508333  0.74993050  0.53870115    -0.81200
O760        O  0.21054889  0.71640107  0.93966597    -0.65800
O761        O  0.27099434  0.76108469  0.49365706    -1.12400
C762        C  0.17685560  0.73264217  0.56938465     1.05700
O763        O  0.15403146  0.73009261  0.96012961    -0.79000
O764        O  0.15445151  0.77209827  0.50626868    -0.66600
Ni765      Ni  0.32515145  0.75508518  0.49465973     1.34900
C766        C  0.17666903  0.79197810  0.51504104     0.84500
O767        O  0.27259634  0.74851581  0.93159604    -0.79600
O768        O  0.32962220  0.76012756  0.95189449    -0.89900
C769        C  0.17469038  0.72071992  0.93765420     0.84000
O770        O  0.32606552  0.71434287  0.49010660    -0.68100
O771        O  0.15537769  0.72698243  0.54674770    -0.87400
C772        C  0.30488135  0.69561935  0.97962553     0.84900
C773        C  0.30759474  0.75666395  0.92897284     1.06400
H774        H  0.21854099  0.70951395  0.50726507     0.38200
O775        O  0.21266474  0.72915603  0.50225949    -1.10000
O776        O  0.21070829  0.78726981  0.52457142    -0.66700
Ni777      Ni  0.24122499  0.75255023  0.53006211     1.26300
O778        O  0.27192478  0.70231159  0.96961624    -0.66900
O779        O  0.21069009  0.74295453  0.56617244    -0.79200
C780        C  0.30892114  0.76577649  0.55920849     0.84300
O781        O  0.27433386  0.77427575  0.55622522    -0.66400
Ni782      Ni  0.15785653  0.73146457  0.50278964     1.27400
Ni783      Ni  0.24209880  0.73719248  0.96704269     1.26100
H784        H  0.26724790  0.78102337  0.48868467     0.38800
O785        O  0.95551811  0.24427359  0.80968850    -0.74700
O786        O  0.03357461  0.22917044  0.74850403    -0.74700
O787        O  0.03143994  0.23477124  0.81028003    -0.74800
O788        O  0.95760273  0.23827975  0.74780307    -0.74800
O789        O  0.96856730  0.28493574  0.74184888    -0.74800
O790        O  0.04117396  0.28184089  0.80721327    -0.74700
O791        O  0.04540899  0.27596564  0.74497312    -0.74700
O792        O  0.96392649  0.29134026  0.80451447    -0.74800
Ni793      Ni  0.99413435  0.23505881  0.77926947     1.25400
Ni794      Ni  0.00509274  0.28531806  0.77449305     1.25400
C795        C  0.94710889  0.27006830  0.81753761     0.87500
C796        C  0.05213088  0.25006104  0.73641654     0.87400
C797        C  0.04818286  0.25748211  0.81941262     0.87500
C798        C  0.95185437  0.26173863  0.73364060     0.87600
O799        O  0.01770265  0.69095115  0.72564150    -0.74700
O800        O  0.93584516  0.70693456  0.78549538    -0.74700
O801        O  0.94301738  0.70571796  0.72244425    -0.74800
O802        O  0.01101455  0.69158060  0.78880934    -0.74800
O803        O  0.02835794  0.73754010  0.78847990    -0.74800
O804        O  0.95941563  0.75182800  0.72266169    -0.74700
O805        O  0.95322794  0.75277044  0.78516114    -0.74700
O806        O  0.03429587  0.73702023  0.72630902    -0.74800
Ni807      Ni  0.97632034  0.69710338  0.75565789     1.25400
Ni808      Ni  0.99434943  0.74637968  0.75574940     1.25400
C809        C  0.03870551  0.71163379  0.71553261     0.87500
C810        C  0.93122955  0.73277684  0.79528275     0.87400
C811        C  0.94083141  0.73088394  0.71103232     0.87500
C812        C  0.03075723  0.71227885  0.79960228     0.87600
O813        O  0.54529421  0.76006473  0.71824096    -0.74700
O814        O  0.45792097  0.76219907  0.77424624    -0.74700
O815        O  0.46851804  0.75639900  0.71216874    -0.74800
O816        O  0.53466188  0.76562940  0.78042175    -0.74800
O817        O  0.53383799  0.81298523  0.77432218    -0.74800
O818        O  0.46277036  0.80375456  0.70785567    -0.74700
O819        O  0.45636118  0.80978758  0.77076546    -0.74700
O820        O  0.54076949  0.80718379  0.71156388    -0.74800
Ni821      Ni  0.50172020  0.75945163  0.74640899     1.25400
Ni822      Ni  0.49827896  0.81016899  0.74089302     1.25400
C823        C  0.55688990  0.78306332  0.70498247     0.87500
C824        C  0.44380391  0.78647248  0.78276401     0.87400
C825        C  0.45489793  0.77833503  0.69856295     0.87500
C826        C  0.54478860  0.79070466  0.78899247     0.87600
O827        O  0.55807988  0.22164835  0.73028023    -0.74700
O828        O  0.47881256  0.20476850  0.79064553    -0.74700
O829        O  0.48032678  0.21542066  0.72912278    -0.74800
O830        O  0.55598672  0.21087064  0.79162686    -0.74800
O831        O  0.54694031  0.25720048  0.80232433    -0.74800
O832        O  0.47476634  0.26240814  0.73783098    -0.74700
O833        O  0.46994476  0.25158675  0.79875077    -0.74700
O834        O  0.55158291  0.26810004  0.74133256    -0.74800
Ni835      Ni  0.51854639  0.21146310  0.76001046     1.25400
Ni836      Ni  0.51054082  0.26144887  0.77038999     1.25400
C837        C  0.56813060  0.24776796  0.72608577     0.87500
C838        C  0.46148347  0.22552271  0.80468932     0.87400
C839        C  0.46562898  0.23985135  0.72286534     0.87500
C840        C  0.56330624  0.23319181  0.80771728     0.87600
C841        C  0.33092251  0.77251126  0.58725707    -0.05500
C842        C  0.32266585  0.79673890  0.60565878    -0.05400
C843        C  0.34581818  0.80351390  0.63081553    -0.23600
C844        C  0.37720524  0.78590462  0.63825113     0.18600
C845        C  0.38500490  0.76119119  0.62015637     0.15800
C846        C  0.36214986  0.75483684  0.59486407    -0.18600
C847        C  0.41554503  0.74304798  0.62759314    -0.20500
C848        C  0.43799095  0.74903108  0.65300026    -0.13000
C849        C  0.43088173  0.77352023  0.67127141     0.03700
C850        C  0.40068335  0.79222371  0.66354053    -0.25200
H851        H  0.29889719  0.81076053  0.60017462     0.08700
H852        H  0.33919003  0.82250051  0.64442766     0.12300
H853        H  0.36870158  0.73591038  0.58107663     0.12300
H854        H  0.42188338  0.72404048  0.61390739     0.12000
H855        H  0.46125835  0.73446259  0.65830013     0.12600
H856        H  0.39486540  0.81108288  0.67759682     0.14500
C857        C  0.32450434  0.76096579  0.89769788    -0.05500
C858        C  0.32041227  0.73964244  0.87505852    -0.05400
C859        C  0.34138031  0.74098490  0.84712823    -0.23600
C860        C  0.36614653  0.76405779  0.84105184     0.18600
C861        C  0.36832828  0.78664514  0.86280311     0.15800
C862        C  0.34801350  0.78473194  0.89120188    -0.18600
C863        C  0.39182568  0.81028271  0.85618551    -0.20500
C864        C  0.41442931  0.81089786  0.82906170    -0.13000
C865        C  0.41462388  0.78765740  0.80831146     0.03700
C866        C  0.38971885  0.76449681  0.81415920    -0.25200
H867        H  0.30252636  0.72113263  0.87966888     0.08700
H868        H  0.33893622  0.72363107  0.83061099     0.12300
H869        H  0.35106706  0.80137795  0.90849365     0.12300
H870        H  0.39349835  0.82797448  0.87236524     0.12000
H871        H  0.43338338  0.82893933  0.82513174     0.12600
H872        H  0.38937398  0.74656697  0.79817944     0.14500
C873        C  0.06657698  0.70703935  0.68956154    -0.05500
C874        C  0.05782106  0.68777216  0.66578429    -0.05400
C875        C  0.07951317  0.68750452  0.63818551    -0.23600
C876        C  0.11064505  0.70628011  0.63403386     0.18600
C877        C  0.12137151  0.72436648  0.65857070     0.15800
C878        C  0.09912238  0.72476566  0.68611443    -0.18600
C879        C  0.15309157  0.74265459  0.65458065    -0.20500
C880        C  0.17263227  0.74418974  0.62601442    -0.13000
C881        C  0.16053795  0.72769988  0.60084959     0.03700
C882        C  0.13014457  0.70814509  0.60536368    -0.25200
H883        H  0.03275010  0.67412229  0.66779662     0.08700
H884        H  0.07108191  0.67332890  0.61968643     0.12300
H885        H  0.10619759  0.73964272  0.70439130     0.12300
H886        H  0.16202367  0.75643844  0.67325492     0.12000
H887        H  0.19600017  0.75931375  0.62320461     0.12600
H888        H  0.12085358  0.69499153  0.58626789     0.14500
C889        C  0.15626170  0.71674208  0.90783209    -0.05500
C890        C  0.17185510  0.72988513  0.88139568    -0.05400
C891        C  0.15098354  0.73065754  0.85425634    -0.23600
C892        C  0.11462639  0.71775763  0.85309547     0.18600
C893        C  0.09997419  0.70278680  0.87905982     0.15800
C894        C  0.12068742  0.70271522  0.90641191    -0.18600
C895        C  0.06425465  0.68900381  0.87753420    -0.20500
C896        C  0.04252542  0.69098862  0.85093266    -0.13000
C897        C  0.05583975  0.70728753  0.82583536     0.03700
C898        C  0.09216077  0.72027836  0.82679781    -0.25200
H899        H  0.19921143  0.74091090  0.88227123     0.08700
H900        H  0.16280174  0.74195503  0.83447240     0.12300
H901        H  0.10876952  0.69242822  0.92683133     0.12300
H902        H  0.05279510  0.67720781  0.89710377     0.12000
H903        H  0.01452208  0.68086207  0.85046434     0.12600
H904        H  0.10262918  0.73260375  0.80724400     0.14500
C905        C  0.64270048  0.77406779  0.91416348    -0.05500
C906        C  0.61522652  0.75217673  0.91164071    -0.05400
C907        C  0.58945868  0.75195191  0.88738300    -0.23600
C908        C  0.59075507  0.77352847  0.86506300     0.18600
C909        C  0.61700598  0.79633972  0.86798864     0.15800
C910        C  0.64265118  0.79655433  0.89258668    -0.18600
C911        C  0.61788261  0.81807579  0.84573178    -0.20500
C912        C  0.59377170  0.81673502  0.82031339    -0.13000
C913        C  0.56875062  0.79349026  0.81660714     0.03700
C914        C  0.56692918  0.77223469  0.83943392    -0.25200
H915        H  0.61427283  0.73473321  0.92797241     0.08700
H916        H  0.56918365  0.73447133  0.88563319     0.12300
H917        H  0.66345214  0.81370521  0.89421750     0.16700
H918        H  0.63767737  0.83583300  0.84769503     0.12000
H919        H  0.59545677  0.83342769  0.80312124     0.12600
H920        H  0.54717617  0.75447093  0.83709043     0.14500
C921        C  0.58842935  0.78134392  0.68109197    -0.05500
C922        C  0.59969467  0.80551408  0.66388634    -0.05400
C923        C  0.62731865  0.80313189  0.63981362    -0.23600
C924        C  0.64419684  0.77651147  0.63237459     0.18600
C925        C  0.63360044  0.75229960  0.64999404     0.15800
C926        C  0.60612852  0.75487060  0.67414476    -0.18600
C927        C  0.65005589  0.72564392  0.64287460    -0.20500
C928        C  0.67622240  0.72274004  0.61821429    -0.13000
C929        C  0.68682740  0.74641493  0.59990443     0.03700
C930        C  0.67089783  0.77348246  0.60742681    -0.25200
H931        H  0.58661819  0.82620924  0.66863964     0.08700
H932        H  0.63501647  0.82202642  0.62671998     0.12300
H933        H  0.59795498  0.73599586  0.68712143     0.12300
H934        H  0.64233272  0.70687169  0.65618117     0.12000
H935        H  0.68790580  0.70161068  0.61336825     0.12600
H936        H  0.67869486  0.79196322  0.59368397     0.14500
C937        C  0.90069005  0.74035377  0.81877016    -0.05500
C938        C  0.89335641  0.76945468  0.82532211    -0.05400
C939        C  0.86678489  0.77771843  0.84830152    -0.23600
C940        C  0.84677838  0.75712010  0.86551939     0.18600
C941        C  0.85290461  0.72774204  0.85901113     0.15800
C942        C  0.87980264  0.71945904  0.83554250    -0.18600
C943        C  0.83232145  0.70734702  0.87642356    -0.20500
C944        C  0.80649109  0.71600593  0.90016676    -0.13000
C945        C  0.80083587  0.74523799  0.90714122     0.03700
C946        C  0.82103700  0.76561116  0.88935271    -0.25200
H947        H  0.90853348  0.78609934  0.81279372     0.08700
H948        H  0.86223429  0.80033679  0.85285199     0.12300
H949        H  0.88500075  0.69694130  0.83083479     0.12300
H950        H  0.83636886  0.68469534  0.87182757     0.12000
H951        H  0.79123921  0.69978465  0.91328286     0.12600
H952        H  0.81680918  0.78824961  0.89402888     0.14500
C953        C  0.91773192  0.73546050  0.68334369    -0.05500
C954        C  0.90427094  0.76289933  0.67587553    -0.05400
C955        C  0.88310672  0.76716449  0.64924400    -0.23600
C956        C  0.87549583  0.74410323  0.62946313     0.18600
C957        C  0.88972412  0.71655558  0.63646133     0.15800
C958        C  0.91049707  0.71238697  0.66339289    -0.18600
C959        C  0.88245824  0.69352088  0.61665093    -0.20500
C960        C  0.85966858  0.69740858  0.59092833    -0.13000
C961        C  0.84385261  0.72443845  0.58442091     0.03700
C962        C  0.85294160  0.74793185  0.60334296    -0.25200
H963        H  0.90978446  0.78101324  0.69081466     0.08700
H964        H  0.87250064  0.78844574  0.64422408     0.12300
H965        H  0.92136084  0.69121146  0.66865906     0.12300
H966        H  0.89347480  0.67231950  0.62152438     0.12000
H967        H  0.85329729  0.67895739  0.57672095     0.12600
H968        H  0.84083024  0.76886961  0.59874604     0.14500
C969        C  0.69916660  0.25641099  0.61605921    -0.05500
C970        C  0.68977382  0.22748187  0.62099021    -0.05400
C971        C  0.66301778  0.21979862  0.64405022    -0.23600
C972        C  0.64511027  0.24089631  0.66258971     0.18600
C973        C  0.65484164  0.26995869  0.65813284     0.15800
C974        C  0.68173371  0.27750022  0.63503892    -0.18600
C975        C  0.63715068  0.29113004  0.67657976    -0.20500
C976        C  0.60944165  0.28370414  0.69884697    -0.13000
C977        C  0.59887205  0.25493959  0.70321398     0.03700
C978        C  0.61725810  0.23353004  0.68517929    -0.25200
H979        H  0.70285087  0.21073993  0.60683188     0.08700
H980        H  0.65606144  0.19739290  0.64716891     0.12300
H981        H  0.68877661  0.29987890  0.63171789     0.12300
H982        H  0.64440362  0.31349813  0.67354945     0.12000
H983        H  0.59596935  0.30065450  0.71246320     0.12600
H984        H  0.60953946  0.21126112  0.68835705     0.14500
C985        C  0.59015053  0.23111498  0.83340580    -0.05500
C986        C  0.61238164  0.20625997  0.83736185    -0.05400
C987        C  0.63628731  0.20372695  0.86260339    -0.23600
C988        C  0.63813715  0.22594311  0.88435659     0.18600
C989        C  0.61612539  0.25111942  0.88045574     0.15800
C990        C  0.59245611  0.25360463  0.85494239    -0.18600
C991        C  0.61806706  0.27335581  0.90218217    -0.20500
C992        C  0.64208388  0.27083726  0.92737389    -0.13000
C993        C  0.66437688  0.24596225  0.93132127     0.03700
C994        C  0.66190068  0.22346754  0.90979783    -0.25200
H995        H  0.61114776  0.18868105  0.82102475     0.08700
H996        H  0.65313388  0.18433976  0.86520687     0.12300
H997        H  0.57533376  0.27285226  0.85220072     0.12300
H998        H  0.60132743  0.29279026  0.89953531     0.12000
H999        H  0.64358825  0.28855031  0.94353148     0.12600
H1000       H  0.67920485  0.20428415  0.91234273     0.14500
C1001       C  0.92704269  0.26112472  0.70658195    -0.05500
C1002       C  0.91014656  0.23511918  0.69764356    -0.05400
C1003       C  0.88949653  0.23323005  0.67064127    -0.23600
C1004       C  0.88507630  0.25736067  0.65216411     0.18600
C1005       C  0.90143533  0.28376152  0.66104288     0.15800
C1006       C  0.92242965  0.28548305  0.68820322    -0.18600
C1007       C  0.89617763  0.30799514  0.64271827    -0.20500
C1008       C  0.87370548  0.30628798  0.61650230    -0.13000
C1009       C  0.85682066  0.28020277  0.60791864     0.03700
C1010       C  0.86353236  0.25564019  0.62542356    -0.25200
H1011       H  0.91337205  0.21595136  0.71128342     0.08700
H1012       H  0.87695180  0.21289426  0.66424011     0.12300
H1013       H  0.93544459  0.30560358  0.69479154     0.12300
H1014       H  0.90852084  0.32839642  0.64910788     0.12000
H1015       H  0.86868584  0.32553831  0.60336443     0.12600
H1016       H  0.85008777  0.23553336  0.61929538     0.14500
C1017       C  0.91873400  0.27444817  0.84298805    -0.05500
C1018       C  0.89208746  0.29720073  0.84365616    -0.05400
C1019       C  0.86343177  0.29879195  0.86709600    -0.23600
C1020       C  0.86150146  0.27784727  0.89028232     0.18600
C1021       C  0.88957775  0.25578998  0.89015212     0.15800
C1022       C  0.91770288  0.25429144  0.86671013    -0.18600
C1023       C  0.88864325  0.23485746  0.91294461    -0.20500
C1024       C  0.85909586  0.23478802  0.93499206    -0.13000
C1025       C  0.82977646  0.25565618  0.93488793     0.03700
C1026       C  0.83160911  0.27780096  0.91297900    -0.25200
H1027       H  0.89261220  0.31307589  0.82556208     0.08700
H1028       H  0.84241684  0.31599559  0.86674788     0.12300
H1029       H  0.93866091  0.23698039  0.86665030     0.12300
H1030       H  0.91021299  0.21801331  0.91323725     0.12000
H1031       H  0.85862563  0.21776156  0.95186068     0.12600
H1032       H  0.80907035  0.29392037  0.91267622     0.14500
C1033       C  0.43254526  0.21967584  0.82913868    -0.05500
C1034       C  0.43782921  0.19669601  0.84931899    -0.05400
C1035       C  0.41450194  0.19408707  0.87582988    -0.23600
C1036       C  0.38535130  0.21428305  0.88229645     0.18600
C1037       C  0.37806329  0.23625622  0.86090792     0.15800
C1038       C  0.40186951  0.23890288  0.83453765    -0.18600
C1039       C  0.34836200  0.25606787  0.86706072    -0.20500
C1040       C  0.32782802  0.25533864  0.89513256    -0.13000
C1041       C  0.33697394  0.23496824  0.91753759     0.03700
C1042       C  0.36478951  0.21380994  0.91048909    -0.25200
H1043       H  0.46140002  0.18171553  0.84552043     0.08700
H1044       H  0.42021510  0.17694919  0.89183997     0.12300
H1045       H  0.39748544  0.25652664  0.81881915     0.12300
H1046       H  0.34207613  0.27281712  0.85072434     0.12000
H1047       H  0.30639383  0.27176836  0.90004125     0.12600
H1048       H  0.37160187  0.19774868  0.92749038     0.14500
C1049       C  0.43887101  0.24254120  0.69732381    -0.05500
C1050       C  0.43736417  0.26842792  0.68112887    -0.05400
C1051       C  0.41457711  0.27097791  0.65535401    -0.23600
C1052       C  0.39246300  0.24779992  0.64565978     0.18600
C1053       C  0.39225206  0.22200770  0.66257925     0.15800
C1054       C  0.41591152  0.21940566  0.68821929    -0.18600
C1055       C  0.36889489  0.19924164  0.65314212    -0.20500
C1056       C  0.34703454  0.20175403  0.62656918    -0.13000
C1057       C  0.34898056  0.22681467  0.60894235     0.03700
C1058       C  0.37117875  0.24989590  0.61889559    -0.25200
H1059       H  0.45486688  0.28647919  0.68780753     0.08700
H1060       H  0.41470362  0.29093480  0.64273392     0.12300
H1061       H  0.41663310  0.19949771  0.70092441     0.12300
H1062       H  0.36799286  0.17943291  0.66600352     0.12000
H1063       H  0.32975885  0.18383141  0.61917628     0.12600
H1064       H  0.37209860  0.26948723  0.60558475     0.14500
C1065       C  0.07510924  0.25490938  0.84487331    -0.05500
C1066       C  0.07471004  0.22964931  0.86231825    -0.05400
C1067       C  0.09866071  0.22659535  0.88717281    -0.23600
C1068       C  0.12346872  0.24874862  0.89507425     0.18600
C1069       C  0.12506421  0.27409277  0.87748223     0.15800
C1070       C  0.10064490  0.27708245  0.85232936    -0.18600
C1071       C  0.15050930  0.29601585  0.88587861    -0.20500
C1072       C  0.17282478  0.29321100  0.91226229    -0.13000
C1073       C  0.16961582  0.26851995  0.93037221     0.03700
C1074       C  0.14583831  0.24610105  0.92100505    -0.25200
H1075       H  0.05527864  0.21227729  0.85713752     0.08700
H1076       H  0.09728860  0.20707479  0.90054392     0.12300
H1077       H  0.10128479  0.29654154  0.83884352     0.12300
H1078       H  0.15242470  0.31550925  0.87253526     0.12000
H1079       H  0.19130417  0.31062752  0.91913307     0.12600
H1080       H  0.14391712  0.22664986  0.93451246     0.14500
C1081       C  0.07991867  0.24413349  0.71098650    -0.05500
C1082       C  0.07322963  0.22096742  0.69106044    -0.05400
C1083       C  0.09579358  0.21707011  0.66439051    -0.23600
C1084       C  0.12585295  0.23601313  0.65748354     0.18600
C1085       C  0.13457582  0.25831970  0.67835723     0.15800
C1086       C  0.11121198  0.26244341  0.70492741    -0.18600
C1087       C  0.16566007  0.27661217  0.67164025    -0.20500
C1088       C  0.18662024  0.27364549  0.64379764    -0.13000
C1089       C  0.17625427  0.25268003  0.62230282     0.03700
C1090       C  0.14645618  0.23357016  0.62951332    -0.25200
H1091       H  0.04928239  0.20661650  0.69532866     0.08700
H1092       H  0.08908655  0.19969215  0.64876698     0.12300
H1093       H  0.11678957  0.28014347  0.72045653     0.12300
H1094       H  0.17310623  0.29359645  0.68751613     0.12000
H1095       H  0.20971283  0.28845683  0.63844208     0.12600
H1096       H  0.13882485  0.21715818  0.61295386     0.14500
C1097       C  0.82621711  0.16163285  0.54558529    -0.05500
C1098       C  0.83742637  0.15797556  0.57628841    -0.05400
C1099       C  0.86228366  0.13545275  0.58409314    -0.23600
C1100       C  0.87669574  0.11647074  0.56126177     0.18600
C1101       C  0.86596100  0.12040712  0.53035421     0.15800
C1102       C  0.84078467  0.14260035  0.52286701    -0.18600
C1103       C  0.88081596  0.10226321  0.50713733    -0.20500
C1104       C  0.90623597  0.08032135  0.51435017    -0.13000
C1105       C  0.91670578  0.07568712  0.54494430     0.03700
C1106       C  0.90178864  0.09378015  0.56849681    -0.25200
H1107       H  0.82700102  0.17247558  0.59421863     0.08700
H1108       H  0.87040802  0.13299444  0.60789830     0.12300
H1109       H  0.83300728  0.14522761  0.49898710     0.12300
H1110       H  0.86829226  0.10329024  0.98274186     0.12000
H1111       H  0.91771663  0.06670297  0.49599836     0.12600
H1112       H  0.91006604  0.09034927  0.59213250     0.14500
C1113       C  0.19170523  0.16394362  0.53713466    -0.05500
C1114       C  0.20695280  0.14549007  0.55936097    -0.05400
C1115       C  0.19159704  0.11797470  0.56389028    -0.23600
C1116       C  0.16085603  0.10824043  0.54611997     0.18600
C1117       C  0.14714938  0.12594422  0.52238003     0.15800
C1118       C  0.16249281  0.15350955  0.51811784    -0.18600
C1119       C  0.11705250  0.11635140  0.50407880    -0.20500
C1120       C  0.09906677  0.09029748  0.51033723    -0.13000
C1121       C  0.11032263  0.07331256  0.53524519     0.03700
C1122       C  0.14227865  0.08190577  0.55250711    -0.25200
H1123       H  0.22948444  0.15283418  0.57430241     0.08700
H1124       H  0.20291881  0.10469750  0.58198811     0.12300
H1125       H  0.15063206  0.16726402  0.50063203     0.12300
H1126       H  0.10640030  0.12951424  0.48561182     0.12000
H1127       H  0.07459271  0.08409933  0.49679337     0.12600
H1128       H  0.15111264  0.06903211  0.57182500     0.14500
C1129       C  0.16071619  0.82168603  0.51421374    -0.05500
C1130       C  0.12980078  0.82744362  0.49467537    -0.05400
C1131       C  0.11029842  0.85360211  0.49602779    -0.23600
C1132       C  0.12096375  0.87471327  0.51714116     0.18600
C1133       C  0.15285859  0.86995059  0.53618350     0.15800
C1134       C  0.17295410  0.84352149  0.53434538    -0.18600
C1135       C  0.16289377  0.89128896  0.55754307    -0.20500
C1136       C  0.14056611  0.91635389  0.56088674    -0.13000
C1137       C  0.10810876  0.92069300  0.54267806     0.03700
C1138       C  0.09923683  0.90004702  0.52024358    -0.25200
H1139       H  0.11994226  0.81130644  0.47868050     0.08700
H1140       H  0.08604827  0.85696609  0.48115844     0.12300
H1141       H  0.19660054  0.83943902  0.54961497     0.12300
H1142       H  0.18727112  0.88820335  0.57232508     0.12000
H1143       H  0.14789916  0.93196448  0.57832554     0.12600
H1144       H  0.07429722  0.90327022  0.50603939     0.14500
C1145       C  0.91328747  0.92543519  0.53847370    -0.05500
C1146       C  0.90667675  0.92116237  0.50699344    -0.05400
C1147       C  0.87119079  0.90526516  0.99606549    -0.23600
C1148       C  0.86059439  0.88363536  0.51884915     0.18600
C1149       C  0.86692063  0.88761758  0.55066313     0.15800
C1150       C  0.89313600  0.90870010  0.56035684    -0.18600
C1151       C  0.84707860  0.87027644  0.57205176    -0.20500
C1152       C  0.82163934  0.84905133  0.56201324    -0.13000
C1153       C  0.81522970  0.84489671  0.53038568     0.03700
C1154       C  0.83477016  0.86258268  0.50900808    -0.25200
H1155       H  0.91024663  0.94009953  0.98878142     0.08700
H1156       H  0.86252070  0.90514990  0.97223013     0.12300
H1157       H  0.89804060  0.91202610  0.58469696     0.12300
H1158       H  0.85149163  0.87294600  0.59654082     0.12000
H1159       H  0.80709517  0.83581214  0.57902438     0.12600
H1160       H  0.82106283  0.86426883  0.98338334     0.14500
C1161       C  0.59127464  0.42365104  0.45655295    -0.05500
C1162       C  0.60524832  0.40567345  0.93114884    -0.05400
C1163       C  0.62976453  0.38337826  0.43711361    -0.23600
C1164       C  0.64542216  0.37950688  0.46640992     0.18600
C1165       C  0.63411297  0.39831663  0.49070581     0.15800
C1166       C  0.60709810  0.42003356  0.48566263    -0.18600
C1167       C  0.64960360  0.39499543  0.51988678    -0.20500
C1168       C  0.67542418  0.37285599  0.52535355    -0.13000
C1169       C  0.68638379  0.35334152  0.50183150     0.03700
C1170       C  0.67163156  0.35704250  0.47209925    -0.25200
H1171       H  0.59384350  0.40836196  0.90832101     0.08700
H1172       H  0.64382601  0.37164360  0.91681959     0.12300
H1173       H  0.59805744  0.43414543  0.50445140     0.12300
H1174       H  0.64140435  0.40935527  0.53865883     0.12000
H1175       H  0.68643009  0.37082206  0.54839820     0.12600
H1176       H  0.67975474  0.34220116  0.45374736     0.14500
C1177       C  0.39277811  0.42222630  0.98034618    -0.05500
C1178       C  0.36395780  0.41762331  0.95865788    -0.05400
C1179       C  0.34000965  0.39347986  0.96057594    -0.23600
C1180       C  0.34454277  0.37333060  0.98418931     0.18600
C1181       C  0.37224915  0.37862242  0.00696805     0.15800
C1182       C  0.39920689  0.40452401  0.50261334    -0.18600
C1183       C  0.38467118  0.35893138  0.52706679    -0.20500
C1184       C  0.36539647  0.33275206  0.52714338    -0.13000
C1185       C  0.33080616  0.32642131  0.00708238     0.03700
C1186       C  0.32353574  0.34732954  0.98456836    -0.25200
H1187       H  0.36109528  0.43213618  0.93946133     0.08700
H1188       H  0.31892629  0.39003054  0.94292588     0.12300
H1189       H  0.42223643  0.40809682  0.51864345     0.12300
H1190       H  0.40655611  0.36274095  0.54400834     0.12000
H1191       H  0.37302048  0.31695713  0.54417400     0.12600
H1192       H  0.30371083  0.34258817  0.96630780     0.14500
C1193       C  0.31818016  0.66535835  0.97702498    -0.05500
C1194       C  0.30456538  0.64725442  0.95365582    -0.05400
C1195       C  0.32008022  0.61970682  0.94924304    -0.23600
C1196       C  0.34920777  0.60959158  0.96835126     0.18600
C1197       C  0.35950693  0.62782150  0.49081636     0.15800
C1198       C  0.34639253  0.65486187  0.99683947    -0.18600
C1199       C  0.38764756  0.61738438  0.51055501    -0.20500
C1200       C  0.40663825  0.59158706  0.50386838    -0.13000
C1201       C  0.39744723  0.57365064  0.98136379     0.03700
C1202       C  0.36713984  0.58281831  0.96277281    -0.25200
H1203       H  0.28289031  0.65479478  0.93804368     0.08700
H1204       H  0.30989551  0.60657272  0.93046593     0.12300
H1205       H  0.35203685  0.66790811  0.51527945     0.12300
H1206       H  0.39592825  0.62965879  0.53059656     0.12000
H1207       H  0.42951272  0.58455500  0.51865164     0.12600
H1208       H  0.35911911  0.56990138  0.94311440     0.14500
C1209       C  0.66034422  0.66272902  0.48297721    -0.05500
C1210       C  0.62911931  0.65900587  0.50369796    -0.05400
C1211       C  0.60301198  0.63682426  0.49962484    -0.23600
C1212       C  0.60807732  0.61752386  0.47505655     0.18600
C1213       C  0.63527619  0.62191098  0.95151370     0.15800
C1214       C  0.65651687  0.64736639  0.95575896    -0.18600
C1215       C  0.61842055  0.61541854  0.92316287    -0.20500
C1216       C  0.59553597  0.59088252  0.91999380    -0.13000
C1217       C  0.58808882  0.57444204  0.44785703     0.03700
C1218       C  0.58304331  0.59431305  0.47203043    -0.25200
H1219       H  0.62519611  0.67318201  0.52340030     0.08700
H1220       H  0.57935712  0.63436717  0.51613455     0.12300
H1221       H  0.65996666  0.66237497  0.93695027     0.12300
H1222       H  0.62222315  0.62961136  0.90367855     0.12000
H1223       H  0.58188393  0.58668544  0.89824256     0.12600
H1224       H  0.55960136  0.59146919  0.48869532     0.14500
loop_ 
_geom_bond_atom_site_label_1 
_geom_bond_atom_site_label_2 
_geom_bond_distance 
_geom_bond_site_symmetry_2 
_ccdc_geom_bond_type 
N1            C6   1.353       .  A
N1            C5   1.353       .  A
N1           H33   1.038       .  S
N2           C10   1.355       .  A
N2          C621   1.354       .  A
N3            C8   1.355       .  A
N3            C7   1.358       .  A
N3           H34   1.035       .  S
N4           C12   1.353       .  A
N4          C623   1.356       .  A
C5           C13   1.387       .  A
C5           C21   1.415       .  A
C6           C22   1.415       .  A
C6           C14   1.387       .  A
C7           C15   1.388       .  A
C7           C24   1.426       .  A
C8           C23   1.420       .  A
C8           C16   1.386       .  A
C9          N614   1.353       .  A
C9           C21   1.415       .  A
C9           C17   1.385       .  A
C10          C24   1.420       .  A
C10          C18   1.386       .  A
C11         N616   1.354       .  A
C11          C19   1.386       .  A
C11          C22   1.416       .  A
C12          C20   1.388       .  A
C12          C23   1.419       .  A
C13          C14   1.375       .  A
C13          H25   1.082       .  S
C14          H26   1.083       .  S
C15          C16   1.377       .  A
C15          H27   1.082       .  S
C16          H28   1.082       .  S
C17         C630   1.379       .  A
C17          H29   1.082       .  S
C18         C629   1.379       .  A
C18          H30   1.082   1_556  S
C19         C632   1.374       .  A
C19          H31   1.082       .  S
C20         C631   1.373       .  A
C20          H32   1.082       .  S
C21         C589   1.489       .  S
C22        C1217   1.493       .  S
C23         C549   1.488       .  S
C24        C1177   1.501       .  S
N35          C40   1.353       .  A
N35          C39   1.357   1_455  A
N35          H67   1.036       .  S
N36          C43   1.355   1_565  A
N36          C44   1.354       .  A
N37          C42   1.357       .  A
N37          C41   1.357   1_455  A
N37          H68   1.037       .  S
N38          C45   1.355   1_565  A
N38          C46   1.356       .  A
C39          C47   1.387       .  A
C39          C55   1.420       .  A
C40          C56   1.419       .  A
C40          C48   1.387       .  A
C41          C49   1.387       .  A
C41          C58   1.421       .  A
C42          C57   1.424       .  A
C42          C50   1.387       .  A
C43          C55   1.420       .  A
C43          C51   1.387       .  A
C44          C58   1.419       .  A
C44          C52   1.387       .  A
C45          C53   1.386       .  A
C45          C56   1.419       .  A
C46          C54   1.386       .  A
C46          C57   1.421       .  A
C47          C48   1.375   1_655  A
C47          H59   1.081       .  S
C48          H60   1.083       .  S
C49          C50   1.375   1_655  A
C49          H61   1.080       .  S
C50          H62   1.082       .  S
C51          C52   1.371   1_545  A
C51          H63   1.082       .  S
C52          H64   1.082       .  S
C53          C54   1.378   1_545  A
C53          H65   1.082       .  S
C54          H66   1.082       .  S
C55         C493   1.498       .  S
C56         C509   1.492       .  S
C57         C525   1.504       .  S
C58         C533   1.495       .  S
O69          C90   1.272       .  A
O69        Ni687   1.920       .  S
O70          C79   1.263       .  A
O70         Ni93   1.898       .  S
O71         Ni75   1.902       .  S
O71         Ni93   1.902       .  S
O71        Ni699   1.915   1_554  S
O71          H94   0.966       .  S
C72         C429   1.471       .  S
C72          O89   1.275       .  A
C72          O81   1.277       .  A
O73          C79   1.271       .  A
O73         Ni92   1.924       .  S
O74         C688   1.270       .  A
O74         Ni92   1.909       .  S
Ni75         O78   1.930       .  S
Ni75         O80   1.904       .  S
Ni75        O681   1.914   1_554  S
C76         C573   1.491       .  S
C76          O86   1.279       .  A
C76         O686   1.270       .  A
O77          C83   1.273       .  A
O77         Ni93   1.910       .  S
O78          C83   1.276       .  A
C79         C445   1.465       .  S
O80          C82   1.266       .  A
O81        Ni704   1.921       .  S
C82         C501   1.490       .  S
C82          O88   1.274       .  A
C83         C477   1.471       .  S
H84          O85   0.966       .  S
O85         Ni93   1.907       .  S
O85         Ni92   1.894       .  S
O85        Ni699   1.902   1_554  S
O86         Ni87   1.953       .  S
Ni87         O91   1.908       .  S
Ni87         O89   1.915       .  S
Ni87        O683   1.909       .  S
Ni87        O697   1.901       .  S
O88         Ni93   1.949       .  S
C90         C461   1.468       .  S
C90          O91   1.268       .  A
Ni92        O693   1.918   1_554  S
O95         C116   1.272       .  A
O95        Ni101   1.922       .  S
O96         C105   1.269       .  A
O96        Ni119   1.916       .  S
O97        Ni101   1.902       .  S
O97        Ni119   1.904       .  S
O97        Ni725   1.903       .  S
O97         H120   0.966       .  S
C98         C381   1.478       .  S
C98         O115   1.268       .  A
C98         O107   1.272       .  A
O99         C717   1.271       .  A
O99        Ni118   1.922       .  S
O100        C102   1.268       .  A
O100       Ni118   1.886       .  S
Ni101       O104   1.914       .  S
Ni101       O106   1.910       .  S
C102        C413   1.474       .  S
C102        O112   1.278       .  A
O103        C109   1.276       .  A
O103       Ni119   1.911       .  S
O104        C109   1.275       .  A
C105        C485   1.491       .  S
C105        O711   1.271       .  A
O106        C108   1.270       .  A
O107       Ni118   1.923       .  S
C108        C357   1.485       .  S
C108        O114   1.272       .  A
C109        C397   1.470       .  S
H110        O723   0.966       .  S
O111       Ni113   1.921       .  S
O111       Ni118   1.908       .  S
O111       Ni731   1.924       .  S
O111        H722   0.966       .  S
O112       Ni113   1.951       .  S
Ni113       O117   1.920       .  S
Ni113       O115   1.898       .  S
Ni113       O709   1.902       .  S
O114       Ni119   1.925       .  S
C116        C557   1.488       .  S
C116        O729   1.271   1_554  A
O117        C728   1.271       .  A
Ni119       O723   1.919       .  S
O121        C754   1.277       .  A
O121       Ni127   1.941       .  S
O122        C743   1.269       .  A
O122       Ni145   1.920       .  S
O123       Ni127   1.903       .  S
O123       Ni145   1.907       .  S
O123       Ni751   1.912       .  S
O123        H758   0.970       .  S
C124        C349   1.479       .  S
C124        O141   1.279       .  A
C124        O133   1.276       .  A
O125        C131   1.270   1_554  A
O125       Ni144   1.916       .  S
O126        C128   1.270       .  A
O126       Ni144   1.909       .  S
Ni127       O130   1.937       .  S
Ni127       O132   1.908       .  S
C128        C317   1.494       .  S
C128        O138   1.276       .  A
O129        C135   1.275       .  A
O129       Ni145   1.906       .  S
O130        C135   1.279       .  A
C131        C597   1.490       .  S
C131        O734   1.274       .  A
O132        C134   1.271       .  A
O133       Ni144   1.911       .  S
C134        C333   1.489       .  S
C134        O140   1.274       .  A
C135        C293   1.485       .  S
H136        O137   0.966   1_556  S
O137       Ni139   1.897       .  S
O137       Ni144   1.888       .  S
O137       Ni757   1.910   1_554  S
O138       Ni139   1.944       .  S
Ni139       O143   1.907       .  S
Ni139       O141   1.926       .  S
Ni139       O735   1.914   1_554  S
O140       Ni145   1.938       .  S
C142        C541   1.492       .  S
C142        O143   1.271       .  A
C142        O733   1.278   1_554  A
Ni145       O749   1.906       .  S
H146        O735   0.967   1_554  S
O147        C168   1.273       .  A
O147       Ni153   1.929   1_554  S
O148        C157   1.266       .  A
O148       Ni171   1.902       .  S
O149       Ni153   1.903       .  S
O149       Ni165   1.912   1_556  S
O149       Ni783   1.901       .  S
O149        H172   0.966       .  S
C150        C269   1.484       .  S
C150        O167   1.275       .  A
C150        O159   1.273       .  A
O151        C157   1.271       .  A
O151       Ni782   1.924       .  S
O152        C154   1.273       .  A
O152       Ni170   1.909       .  S
Ni153       O158   1.915       .  S
Ni153       O768   1.933       .  S
C154        C517   1.494       .  S
C154        O164   1.280       .  A
O155        C161   1.278       .  A
O155       Ni171   1.924       .  S
O156        C161   1.278       .  A
O156       Ni765   1.930       .  S
C157        C277   1.467       .  S
O158        C772   1.270       .  A
O159       Ni170   1.923       .  S
C160        C581   1.486       .  S
C160        O166   1.272       .  A
C160        O770   1.269       .  A
C161        C245   1.479       .  S
H162        O163   0.966       .  S
O163       Ni165   1.921       .  S
O163       Ni170   1.910       .  S
O163       Ni783   1.927   1_554  S
O164       Ni165   1.952       .  S
Ni165       O169   1.924       .  S
Ni165       O167   1.923       .  S
O166       Ni171   1.934       .  S
C168        C229   1.488       .  S
C168        O169   1.273       .  A
Ni170       O763   1.927   1_554  S
Ni171       O761   1.903       .  S
Ni171       O775   1.924       .  S
O173        C183   1.281       .  A
O173       Ni181   1.911       .  S
O174        C184   1.280       .  A
O174       Ni181   1.912   1_455  S
O175        C185   1.280       .  A
O175       Ni181   1.904   1_455  S
O176        C186   1.279       .  A
O176       Ni181   1.903       .  S
O177        C186   1.282       .  A
O177       Ni182   1.915   1_655  S
O178        C185   1.282       .  A
O178       Ni182   1.921       .  S
O179        C184   1.282       .  A
O179       Ni182   1.918       .  S
O180        C183   1.280       .  A
O180       Ni182   1.924   1_655  S
Ni181      Ni182   2.389   1_655  S
C183        C405   1.470       .  S
C184        C469   1.472       .  S
C185        C453   1.477       .  S
C186        C389   1.473       .  S
O187        C197   1.285       .  A
O187       Ni195   1.933   1_455  S
O188        C198   1.284       .  A
O188       Ni195   1.934       .  S
O189        C199   1.281       .  A
O189       Ni195   1.910       .  S
O190        C200   1.279       .  A
O190       Ni195   1.913   1_455  S
O191        C200   1.280       .  A
O191       Ni196   1.912   1_455  S
O192        C199   1.281       .  A
O192       Ni196   1.915       .  S
O193        C198   1.282       .  A
O193       Ni196   1.914       .  S
O194        C197   1.280       .  A
O194       Ni196   1.912   1_455  S
Ni195      Ni196   2.388       .  S
C197        C261   1.483       .  S
C198        C325   1.489       .  S
C199        C341   1.474       .  S
C200        C285   1.464       .  S
O201        C211   1.283       .  A
O201       Ni209   1.924       .  S
O202        C212   1.282       .  A
O202       Ni209   1.924       .  S
O203        C213   1.280       .  A
O203       Ni209   1.909       .  S
O204        C214   1.280       .  A
O204       Ni209   1.909       .  S
O205        C214   1.283       .  A
O205       Ni210   1.930       .  S
O206        C213   1.284       .  A
O206       Ni210   1.936       .  S
O207        C212   1.283       .  A
O207       Ni210   1.924       .  S
O208        C211   1.284       .  A
O208       Ni210   1.930       .  S
Ni209      Ni210   2.385       .  S
C211        C309   1.492       .  S
C212        C253   1.482       .  S
C213        C237   1.481       .  S
C214        C301   1.480       .  S
O215        C225   1.284       .  A
O215       Ni223   1.928       .  S
O216        C226   1.282       .  A
O216       Ni223   1.923       .  S
O217        C227   1.281       .  A
O217       Ni223   1.917       .  S
O218        C228   1.281       .  A
O218       Ni223   1.917       .  S
O219        C228   1.280       .  A
O219       Ni224   1.906       .  S
O220        C227   1.278       .  A
O220       Ni224   1.901       .  S
O221        C226   1.280       .  A
O221       Ni224   1.905       .  S
O222        C225   1.280       .  A
O222       Ni224   1.909       .  S
Ni223      Ni224   2.389       .  S
C225        C365   1.484       .  S
C226        C421   1.471       .  S
C227        C437   1.464       .  S
C228        C373   1.475       .  S
C229        C230   1.407       .  A
C229        C234   1.406       .  A
C230        C231   1.408       .  A
C230        H239   1.083       .  S
C231        C232   1.408       .  A
C231        H240   1.083       .  S
C232        C238   1.415       .  A
C232        C233   1.413       .  A
C233        C235   1.399       .  A
C233        C234   1.400       .  A
C234        H241   1.084       .  S
C235        C236   1.392       .  A
C235        H242   1.084       .  S
C236        C237   1.404       .  A
C236        H243   1.084       .  S
C237        C238   1.411       .  A
C238        H244   1.084       .  S
C245        C246   1.405       .  A
C245        C250   1.405       .  A
C246        C247   1.402       .  A
C246        H255   1.083       .  S
C247        C248   1.405       .  A
C247        H256   1.083       .  S
C248        C254   1.410       .  A
C248        C249   1.415       .  A
C249        C251   1.402       .  A
C249        C250   1.406       .  A
C250        H257   1.084       .  S
C251        C252   1.398       .  A
C251        H258   1.084       .  S
C252        C253   1.405       .  A
C252        H259   1.083       .  S
C253        C254   1.408       .  A
C254        H260   1.084       .  S
C261        C262   1.405       .  A
C261        C266   1.409       .  A
C262        C263   1.400       .  A
C262        H271   1.083       .  S
C263        C264   1.404       .  A
C263        H272   1.083       .  S
C264        C270   1.407       .  A
C264        C265   1.413       .  A
C265        C267   1.404       .  A
C265        C266   1.407       .  A
C266        H273   1.084       .  S
C267        C268   1.400       .  A
C267        H274   1.083       .  S
C268        C269   1.405       .  A
C268        H275   1.083       .  S
C269        C270   1.409       .  A
C270        H276   1.084       .  S
C277        C278   1.403       .  A
C277        C282   1.403       .  A
C278        C279   1.398       .  A
C278        H287   1.083       .  S
C279        C280   1.403       .  A
C279        H288   1.084       .  S
C280        C286   1.401       .  A
C280        C281   1.415       .  A
C281        C283   1.402       .  A
C281        C282   1.400       .  A
C282        H289   1.085       .  S
C283        C284   1.396       .  A
C283        H290   1.084       .  S
C284        C285   1.402       .  A
C284        H291   1.084       .  S
C285        C286   1.402       .  A
C286        H292   1.085       .  S
C293        C294   1.407       .  A
C293        C298   1.412       .  A
C294        C295   1.394       .  A
C294        H303   1.083       .  S
C295        C296   1.400       .  A
C295        H304   1.084       .  S
C296        C302   1.400       .  A
C296        C297   1.412       .  A
C297        C299   1.406       .  A
C297        C298   1.407       .  A
C298        H305   1.084       .  S
C299        C300   1.403       .  A
C299        H306   1.084       .  S
C300        C301   1.405       .  A
C300        H307   1.083       .  S
C301        C302   1.405       .  A
C302        H308   1.084       .  S
C309        C310   1.408       .  A
C309        C314   1.407       .  A
C310        C311   1.405       .  A
C310        H319   1.083       .  S
C311        C312   1.405       .  A
C311        H320   1.083       .  S
C312        C318   1.415       .  A
C312        C313   1.414       .  A
C313        C315   1.398       .  A
C313        C314   1.406       .  A
C314        H321   1.084       .  S
C315        C316   1.394       .  A
C315        H322   1.084       .  S
C316        C317   1.410       .  A
C316        H323   1.083       .  S
C317        C318   1.412       .  A
C318        H324   1.084       .  S
C325        C326   1.407       .  A
C325        C330   1.412       .  A
C326        C327   1.393       .  A
C326        H335   1.083       .  S
C327        C328   1.398       .  A
C327        H336   1.084       .  S
C328        C334   1.403       .  A
C328        C329   1.413       .  A
C329        C331   1.406       .  A
C329        C330   1.413       .  A
C330        H337   1.084       .  S
C331        C332   1.405       .  A
C331        H338   1.083       .  S
C332        C333   1.408       .  A
C332        H339   1.083       .  S
C333        C334   1.406       .  A
C334        H340   1.084       .  S
C341        C342   1.405       .  A
C341        C346   1.404       .  A
C342        C343   1.398       .  A
C342        H351   1.083       .  S
C343        C344   1.403       .  A
C343        H352   1.084       .  S
C344        C350   1.403       .  A
C344        C345   1.413       .  A
C345        C347   1.400       .  A
C345        C346   1.399       .  A
C346        H353   1.084       .  S
C347        C348   1.394       .  A
C347        H354   1.084       .  S
C348        C349   1.407       .  A
C348        H355   1.083       .  S
C349        C350   1.407       .  A
C350        H356   1.084       .  S
C357        C358   1.407       .  A
C357        C362   1.408       .  A
C358        C359   1.399       .  A
C358        H367   1.083       .  S
C359        C360   1.402       .  A
C359        H368   1.083       .  S
C360        C366   1.407       .  A
C360        C361   1.414       .  A
C361        C363   1.400       .  A
C361        C362   1.404       .  A
C362        H369   1.084       .  S
C363        C364   1.396       .  A
C363        H370   1.084       .  S
C364        C365   1.408       .  A
C364        H371   1.083       .  S
C365        C366   1.407       .  A
C366        H372   1.084       .  S
C373        C374   1.405       .  A
C373        C378   1.405       .  A
C374        C375   1.398       .  A
C374        H383   1.083       .  S
C375        C376   1.403       .  A
C375        H384   1.084       .  S
C376        C382   1.402       .  A
C376        C377   1.412       .  A
C377        C379   1.400       .  A
C377        C378   1.398       .  A
C378        H385   1.084       .  S
C379        C380   1.393       .  A
C379        H386   1.084       .  S
C380        C381   1.406       .  A
C380        H387   1.083       .  S
C381        C382   1.408       .  A
C382        H388   1.084       .  S
C389        C390   1.407       .  A
C389        C394   1.404       .  A
C390        C391   1.394       .  A
C390        H399   1.083       .  S
C391        C392   1.400       .  A
C391        H400   1.084       .  S
C392        C398   1.399       .  A
C392        C393   1.414       .  A
C393        C395   1.400       .  A
C393        C394   1.399       .  A
C394        H401   1.084       .  S
C395        C396   1.394       .  A
C395        H402   1.084       .  S
C396        C397   1.405       .  A
C396        H403   1.083       .  S
C397        C398   1.404       .  A
C398        H404   1.085       .  S
C405        C406   1.405       .  A
C405        C410   1.397       .  A
C406        C407   1.406       .  A
C406        H415   1.083       .  S
C407        C408   1.407       .  A
C407        H416   1.083       .  S
C408        C414   1.412       .  A
C408        C409   1.416       .  A
C409        C411   1.395       .  A
C409        C410   1.395       .  A
C410        H417   1.085       .  S
C411        C412   1.387       .  A
C411        H418   1.084       .  S
C412        C413   1.405       .  A
C412        H419   1.084       .  S
C413        C414   1.408       .  A
C414        H420   1.084       .  S
C421        C422   1.403       .  A
C421        C426   1.403       .  A
C422        C423   1.399       .  A
C422        H431   1.083       .  S
C423        C424   1.404       .  A
C423        H432   1.084       .  S
C424        C430   1.402       .  A
C424        C425   1.414       .  A
C425        C427   1.401       .  A
C425        C426   1.398       .  A
C426        H433   1.085       .  S
C427        C428   1.394       .  A
C427        H434   1.084       .  S
C428        C429   1.404       .  A
C428        H435   1.083       .  S
C429        C430   1.405       .  A
C430        H436   1.084       .  S
C437        C438   1.403       .  A
C437        C442   1.404       .  A
C438        C439   1.390       .  A
C438        H447   1.083       .  S
C439        C440   1.398       .  A
C439        H448   1.084       .  S
C440        C446   1.394       .  A
C440        C441   1.415       .  A
C441        C443   1.404       .  A
C441        C442   1.402       .  A
C442        H449   1.084       .  S
C443        C444   1.399       .  A
C443        H450   1.083       .  S
C444        C445   1.403       .  A
C444        H451   1.083       .  S
C445        C446   1.400       .  A
C446        H452   1.085       .  S
C453        C454   1.406       .  A
C453        C458   1.409       .  A
C454        C455   1.390       .  A
C454        H463   1.083       .  S
C455        C456   1.398       .  A
C455        H464   1.084       .  S
C456        C462   1.393       .  A
C456        C457   1.413       .  A
C457        C459   1.407       .  A
C457        C458   1.406       .  A
C458        H465   1.084       .  S
C459        C460   1.403       .  A
C459        H466   1.083       .  S
C460        C461   1.402       .  A
C460        H467   1.083       .  S
C461        C462   1.402       .  A
C462        H468   1.085       .  S
C469        C470   1.404       .  A
C469        C474   1.404       .  A
C470        C471   1.396       .  A
C470        H479   1.083       .  S
C471        C472   1.401       .  A
C471        H480   1.084       .  S
C472        C478   1.401       .  A
C472        C473   1.414       .  A
C473        C475   1.403       .  A
C473        C474   1.404       .  A
C474        H481   1.084       .  S
C475        C476   1.399       .  A
C475        H482   1.083       .  S
C476        C477   1.402       .  A
C476        H483   1.083       .  S
C477        C478   1.404       .  A
C478        H484   1.085       .  S
C485        C486   1.408       .  A
C485        C490   1.409       .  A
C486        C487   1.405       .  A
C486        H495   1.083       .  S
C487        C488   1.407       .  A
C487        H496   1.083       .  S
C488        C494   1.413       .  A
C488        C489   1.413       .  A
C489        C491   1.401       .  A
C489        C490   1.403       .  A
C490        H497   1.084   1_554  S
C491        C492   1.395       .  A
C491       H1110   1.084   1_554  S
C492        C493   1.404       .  A
C492        H499   1.083   1_554  S
C493        C494   1.411       .  A
C494        H500   1.084       .  S
H498       C1103   1.084       .  S
C501        C502   1.408       .  A
C501        C506   1.408       .  A
C502        C503   1.405       .  A
C502        H511   1.083       .  S
C503        C504   1.405       .  A
C503        H512   1.083       .  S
C504        C510   1.414       .  A
C504        C505   1.415       .  A
C505        C507   1.401       .  A
C505        C506   1.405       .  A
C506        H513   1.084   1_554  S
C507        C508   1.395       .  A
C507        H514   1.084   1_554  S
C508        C509   1.404       .  A
C508        H515   1.084   1_554  S
C509        C510   1.408       .  A
C510        H516   1.084       .  S
C517        C518   1.409   1_554  A
C517        C522   1.413       .  A
C518        C519   1.396       .  A
C518        H527   1.083       .  S
C519        C520   1.399   1_556  A
C519        H528   1.084       .  S
C520        C526   1.406       .  A
C520        C521   1.414       .  A
C521        C523   1.407       .  A
C521        C522   1.417       .  A
C522        H529   1.084       .  S
C523        C524   1.407       .  A
C523        H530   1.083       .  S
C524        C525   1.407       .  A
C524        H531   1.083       .  S
C525        C526   1.407       .  A
C526        H532   1.085       .  S
C533        C534   1.404       .  A
C533        C538   1.408       .  A
C534       C1147   1.396   1_554  A
C534       H1155   1.083   1_554  S
C535       C1146   1.396       .  A
C535       C1148   1.402       .  A
C535        H544   1.084       .  S
C536        C542   1.406       .  A
C536        C537   1.414       .  A
C536       C1147   1.401   1_554  A
C537        C539   1.404       .  A
C537        C538   1.411       .  A
C538        H545   1.084       .  S
C539        C540   1.403       .  A
C539        H546   1.083       .  S
C540        C541   1.408       .  A
C540        H547   1.083       .  S
C541        C542   1.409       .  A
C542       H1160   1.084   1_554  S
H543       C1146   1.083       .  S
H548       C1154   1.084       .  S
C549        C554   1.398       .  A
C549       C1162   1.405       .  A
C550       C1161   1.405       .  A
C550       C1163   1.404       .  A
C550        H559   1.083       .  S
C551        C552   1.407       .  A
C551       C1162   1.406       .  A
C551       H1172   1.083       .  S
C552        C558   1.414       .  A
C552        C553   1.415       .  A
C553        C555   1.395   1_556  A
C553        C554   1.399       .  A
C554        H561   1.085   1_556  S
C555        C556   1.389       .  A
C555        H562   1.084       .  S
C556        C557   1.409       .  A
C556        H563   1.083       .  S
C557        C558   1.412   1_554  A
C558        H564   1.084       .  S
H560       C1163   1.083       .  S
C565        C566   1.405       .  A
C565       C1182   1.405       .  A
C565        C636   1.496       .  S
C566        C567   1.405       .  A
C566        H575   1.083       .  S
C567        C568   1.406       .  A
C567        H576   1.083       .  S
C568        C574   1.417       .  A
C568        C569   1.416       .  A
C569       C1183   1.399       .  A
C569       C1182   1.407       .  A
C570       C1177   1.406   1_554  A
C570       C1181   1.411       .  A
C570        H577   1.084       .  S
C571        C572   1.397       .  A
C571       C1181   1.400       .  A
C571        H578   1.084       .  S
C572       C1185   1.407       .  A
C572        H579   1.084       .  S
C573        C574   1.411       .  A
C573       C1184   1.408       .  A
C574        H580   1.084       .  S
C581        C582   1.407       .  A
C581        C586   1.407       .  A
C582        C583   1.403       .  A
C582        H591   1.083       .  S
C583        C584   1.405       .  A
C583        H592   1.083       .  S
C584        C590   1.411       .  A
C584       C1197   1.415       .  A
C585        C587   1.401   1_556  A
C585       C1196   1.415       .  A
C585       C1198   1.406       .  A
C586       C1197   1.406       .  A
C586       H1205   1.084       .  S
C587        C588   1.396       .  A
C587        H594   1.084       .  S
C588       C1201   1.404   1_554  A
C588        H595   1.083       .  S
C589        C590   1.407       .  A
C589       C1200   1.403       .  A
C590        H596   1.084       .  S
H593       C1198   1.084   1_554  S
C597        C598   1.409   1_556  A
C597       C1214   1.411       .  A
C598        C599   1.392       .  A
C598        H607   1.083       .  S
C599        C600   1.397   1_554  A
C599        H608   1.084       .  S
C600        C606   1.403       .  A
C600       C1213   1.415       .  A
C601        C603   1.406       .  A
C601        C602   1.411       .  A
C601       C1212   1.415       .  A
C602       C1209   1.408       .  A
C602        H609   1.084       .  S
C603        C604   1.404       .  A
C603        H610   1.083       .  S
C604       C1217   1.405       .  A
C604        H611   1.083       .  S
C605        C606   1.402       .  A
C605       C1216   1.406       .  A
C605        C634   1.495       .  S
C606        H612   1.085       .  S
N613        C618   1.356       .  A
N613        C617   1.353       .  A
N613        H645   1.036       .  S
N614        C622   1.353       .  A
N615        C620   1.356       .  A
N615        C619   1.356       .  A
N615        H646   1.037       .  S
N616        C624   1.352       .  A
C617        C625   1.387       .  A
C617        C633   1.419       .  A
C618        C634   1.419       .  A
C618        C626   1.388       .  A
C619        C627   1.388       .  A
C619        C636   1.423       .  A
C620        C635   1.419       .  A
C620        C628   1.386       .  A
C621        C633   1.418       .  A
C621        C629   1.386       .  A
C622        C636   1.418       .  A
C622        C630   1.386       .  A
C623        C631   1.385       .  A
C623        C634   1.418       .  A
C624        C632   1.387       .  A
C624        C635   1.417       .  A
C625        C626   1.372       .  A
C625        H637   1.082       .  S
C626        H638   1.080       .  S
C627        C628   1.374       .  A
C627        H639   1.082       .  S
C628        H640   1.081       .  S
C629        H641   1.082   1_556  S
C630        H642   1.082       .  S
C631        H643   1.082       .  S
C632        H644   1.082       .  S
C633       C1201   1.490       .  S
C635       C1161   1.488       .  S
N647        C652   1.354       .  A
N647        C651   1.356   1_455  A
N647        H679   1.037       .  S
N648        C655   1.352   1_565  A
N648        C656   1.353       .  A
N649        C654   1.354       .  A
N649        C653   1.356   1_455  A
N649        H680   1.038       .  S
N650        C657   1.357   1_565  A
N650        C658   1.355       .  A
C651        C659   1.388       .  A
C651        C667   1.418       .  A
C652        C668   1.420       .  A
C652        C660   1.387       .  A
C653        C661   1.385       .  A
C653        C670   1.416       .  A
C654        C669   1.422       .  A
C654        C662   1.389       .  A
C655        C667   1.418       .  A
C655        C663   1.388       .  A
C656        C670   1.414       .  A
C656        C664   1.385       .  A
C657        C665   1.385       .  A
C657        C668   1.420       .  A
C658        C666   1.387       .  A
C658        C669   1.422       .  A
C659        C660   1.374   1_655  A
C659        H671   1.081       .  S
C660        H672   1.083       .  S
C661        C662   1.377   1_655  A
C661        H673   1.082       .  S
C662        H674   1.082       .  S
C663        C664   1.373   1_545  A
C663        H675   1.082       .  S
C664        H676   1.082       .  S
C665        C666   1.380   1_545  A
C665        H677   1.082       .  S
C666        H678   1.082       .  S
C667       C1105   1.489       .  S
C668       C1121   1.500       .  S
C669       C1137   1.499       .  S
C670       C1145   1.492       .  S
O681        C702   1.272       .  A
O682        C691   1.265       .  A
O682       Ni705   1.903       .  S
O683       Ni687   1.899       .  S
O683       Ni705   1.902       .  S
O683        H706   0.966       .  S
C684       C1041   1.476       .  S
C684        O701   1.277       .  A
C684        O693   1.276       .  A
O685        C691   1.272       .  A
O685       Ni704   1.925       .  S
O686       Ni704   1.908       .  S
Ni687       O690   1.923       .  S
Ni687       O692   1.906       .  S
C688       C1185   1.492       .  S
C688        O698   1.278   1_554  A
O689        C695   1.275       .  A
O689       Ni705   1.915       .  S
O690        C695   1.277       .  A
C691       C1057   1.465       .  S
O692        C694   1.268       .  A
C694       C1113   1.494       .  S
C694        O700   1.275       .  A
C695       C1089   1.465       .  S
H696        O697   0.966       .  S
O697       Ni705   1.907       .  S
O697       Ni704   1.892       .  S
O698       Ni699   1.954       .  S
Ni699       O703   1.903       .  S
Ni699       O701   1.924       .  S
O700       Ni705   1.947       .  S
C702       C1073   1.467       .  S
C702        O703   1.268       .  A
O707        C728   1.271       .  A
O707       Ni713   1.920       .  S
O708        C717   1.268       .  A
O708       Ni731   1.913       .  S
O709       Ni713   1.902       .  S
O709       Ni731   1.901       .  S
O709        H732   0.966       .  S
C710        C993   1.476       .  S
C710        O727   1.268       .  A
C710        O719   1.273       .  A
O711       Ni730   1.928   1_554  S
O712        C714   1.269       .  A
O712       Ni730   1.887       .  S
Ni713       O716   1.912       .  S
Ni713       O718   1.909       .  S
C714       C1025   1.477       .  S
C714        O724   1.278       .  A
O715        C721   1.277       .  A
O715       Ni731   1.914       .  S
O716        C721   1.274       .  A
C717       C1097   1.487       .  S
O718        C720   1.270       .  A
O719       Ni730   1.919       .  S
C720        C969   1.482       .  S
C720        O726   1.270       .  A
C721       C1009   1.470       .  S
O723       Ni725   1.920       .  S
O723       Ni730   1.906   1_554  S
O724       Ni725   1.949   1_556  S
Ni725       O729   1.920   1_554  S
Ni725       O727   1.899   1_554  S
O726       Ni731   1.919       .  S
C728       C1169   1.486       .  S
O733       Ni739   1.946       .  S
O734       Ni757   1.934       .  S
O735       Ni739   1.905       .  S
O735       Ni757   1.915       .  S
C736        C961   1.481       .  S
C736        O753   1.279       .  A
C736        O745   1.276       .  A
O737        C743   1.271       .  A
O737       Ni756   1.927       .  S
O738        C740   1.270       .  A
O738       Ni756   1.904       .  S
Ni739       O742   1.935       .  S
Ni739       O744   1.910       .  S
C740        C929   1.492       .  S
C740        O750   1.278       .  A
O741        C747   1.276       .  A
O741       Ni757   1.911       .  S
O742        C747   1.279       .  A
C743       C1209   1.476       .  S
O744        C746   1.272       .  A
O745       Ni756   1.915       .  S
C746        C945   1.493       .  S
C746        O752   1.277       .  A
C747        C905   1.486       .  S
H748        O749   0.965       .  S
O749       Ni751   1.902       .  S
O749       Ni756   1.892       .  S
O750       Ni751   1.945       .  S
Ni751       O755   1.913       .  S
Ni751       O753   1.927       .  S
O752       Ni757   1.945       .  S
C754       C1153   1.492       .  S
C754        O755   1.273       .  A
O759        C780   1.272       .  A
O759       Ni765   1.927       .  S
O760        C769   1.265       .  A
O760       Ni783   1.900       .  S
O761       Ni765   1.901       .  S
O761       Ni777   1.912       .  S
O761        H784   0.966       .  S
C762        C881   1.485       .  S
C762        O779   1.276       .  A
C762        O771   1.274       .  A
O763        C769   1.271       .  A
O764        C766   1.272       .  A
O764       Ni782   1.906       .  S
Ni765       O770   1.912       .  S
C766       C1129   1.493       .  S
C766        O776   1.279       .  A
O767        C773   1.277       .  A
O767       Ni783   1.924       .  S
O768        C773   1.278       .  A
C769        C889   1.468       .  S
O771       Ni782   1.920       .  S
C772       C1193   1.488       .  S
C772        O778   1.271       .  A
C773        C857   1.481       .  S
H774        O775   0.966       .  S
O775       Ni777   1.918       .  S
O775       Ni782   1.905       .  S
O776       Ni777   1.952       .  S
Ni777       O781   1.922       .  S
Ni777       O779   1.927       .  S
O778       Ni783   1.932       .  S
C780        C841   1.484       .  S
C780        O781   1.273       .  A
O785        C795   1.281       .  A
O785       Ni793   1.905       .  S
O786        C796   1.280       .  A
O786       Ni793   1.907   1_455  S
O787        C797   1.277       .  A
O787       Ni793   1.889   1_455  S
O788        C798   1.277       .  A
O788       Ni793   1.891       .  S
O789        C798   1.284       .  A
O789       Ni794   1.923   1_655  S
O790        C797   1.282       .  A
O790       Ni794   1.922       .  S
O791        C796   1.282       .  A
O791       Ni794   1.922       .  S
O792        C795   1.282       .  A
O792       Ni794   1.929   1_655  S
Ni793      Ni794   2.389   1_655  S
C795       C1017   1.475       .  S
C796       C1081   1.472       .  S
C797       C1065   1.469       .  S
C798       C1001   1.472       .  S
O799        C809   1.286       .  A
O799       Ni807   1.935   1_455  S
O800        C810   1.285       .  A
O800       Ni807   1.940       .  S
O801        C811   1.281       .  A
O801       Ni807   1.912       .  S
O802        C812   1.280       .  A
O802       Ni807   1.915   1_455  S
O803        C812   1.280       .  A
O803       Ni808   1.913   1_455  S
O804        C811   1.281       .  A
O804       Ni808   1.918       .  S
O805        C810   1.282       .  A
O805       Ni808   1.913       .  S
O806        C809   1.279       .  A
O806       Ni808   1.910   1_455  S
Ni807      Ni808   2.388       .  S
C809        C873   1.482       .  S
C810        C937   1.493       .  S
C811        C953   1.476       .  S
C812        C897   1.468       .  S
O813        C823   1.283       .  A
O813       Ni821   1.922       .  S
O814        C824   1.282       .  A
O814       Ni821   1.923       .  S
O815        C825   1.280       .  A
O815       Ni821   1.906       .  S
O816        C826   1.280       .  A
O816       Ni821   1.909       .  S
O817        C826   1.284       .  A
O817       Ni822   1.930       .  S
O818        C825   1.284       .  A
O818       Ni822   1.935       .  S
O819        C824   1.283       .  A
O819       Ni822   1.926       .  S
O820        C823   1.283       .  A
O820       Ni822   1.929       .  S
Ni821      Ni822   2.385       .  S
C823        C921   1.491       .  S
C824        C865   1.484       .  S
C825        C849   1.480       .  S
C826        C913   1.480       .  S
O827        C837   1.283       .  A
O827       Ni835   1.924       .  S
O828        C838   1.282       .  A
O828       Ni835   1.921       .  S
O829        C839   1.281       .  A
O829       Ni835   1.917       .  S
O830        C840   1.281       .  A
O830       Ni835   1.912       .  S
O831        C840   1.280       .  A
O831       Ni836   1.907       .  S
O832        C839   1.279       .  A
O832       Ni836   1.903       .  S
O833        C838   1.280       .  A
O833       Ni836   1.909       .  S
O834        C837   1.280       .  A
O834       Ni836   1.908       .  S
Ni835      Ni836   2.389       .  S
C837        C977   1.481       .  S
C838       C1033   1.471       .  S
C839       C1049   1.468       .  S
C840        C985   1.473       .  S
C841        C842   1.405       .  A
C841        C846   1.406       .  A
C842        C843   1.406       .  A
C842        H851   1.083       .  S
C843        C844   1.407       .  A
C843        H852   1.083       .  S
C844        C850   1.412       .  A
C844        C845   1.414       .  A
C845        C847   1.399       .  A
C845        C846   1.400       .  A
C846        H853   1.085       .  S
C847        C848   1.392       .  A
C847        H854   1.084       .  S
C848        C849   1.405       .  A
C848        H855   1.083       .  S
C849        C850   1.409       .  A
C850        H856   1.084       .  S
C857        C858   1.404       .  A
C857        C862   1.407       .  A
C858        C859   1.401       .  A
C858        H867   1.083       .  S
C859        C860   1.404       .  A
C859        H868   1.083       .  S
C860        C866   1.409       .  A
C860        C861   1.415       .  A
C861        C863   1.403       .  A
C861        C862   1.409       .  A
C862        H869   1.084       .  S
C863        C864   1.399       .  A
C863        H870   1.084       .  S
C864        C865   1.406       .  A
C864        H871   1.083       .  S
C865        C866   1.408       .  A
C866        H872   1.084       .  S
C873        C874   1.404       .  A
C873        C878   1.409       .  A
C874        C875   1.399       .  A
C874        H883   1.083       .  S
C875        C876   1.404       .  A
C875        H884   1.084       .  S
C876        C882   1.405       .  A
C876        C877   1.413       .  A
C877        C879   1.405       .  A
C877        C878   1.407       .  A
C878        H885   1.084       .  S
C879        C880   1.401       .  A
C879        H886   1.083       .  S
C880        C881   1.405       .  A
C880        H887   1.083       .  S
C881        C882   1.409       .  A
C882        H888   1.084       .  S
C889        C890   1.403       .  A
C889        C894   1.403       .  A
C890        C891   1.397       .  A
C890        H899   1.084       .  S
C891        C892   1.403       .  A
C891        H900   1.084       .  S
C892        C898   1.402       .  A
C892        C893   1.415       .  A
C893        C895   1.402       .  A
C893        C894   1.402       .  A
C894        H901   1.085       .  S
C895        C896   1.397       .  A
C895        H902   1.084       .  S
C896        C897   1.403       .  A
C896        H903   1.083       .  S
C897        C898   1.403       .  A
C898        H904   1.085       .  S
C905        C906   1.407       .  A
C905        C910   1.411       .  A
C906        C907   1.397       .  A
C906        H915   1.083       .  S
C907        C908   1.402       .  A
C907        H916   1.084       .  S
C908        C914   1.402       .  A
C908        C909   1.412       .  A
C909        C911   1.405       .  A
C909        C910   1.405       .  A
C910        H917   1.084       .  S
C911        C912   1.401       .  A
C911        H918   1.084       .  S
C912        C913   1.404       .  A
C912        H919   1.083       .  S
C913        C914   1.407       .  A
C914        H920   1.084       .  S
C921        C922   1.409       .  A
C921        C926   1.406       .  A
C922        C923   1.405       .  A
C922        H931   1.083       .  S
C923        C924   1.405       .  A
C923        H932   1.083       .  S
C924        C930   1.414       .  A
C924        C925   1.414       .  A
C925        C927   1.397       .  A
C925        C926   1.404       .  A
C926        H933   1.084       .  S
C927        C928   1.393       .  A
C927        H934   1.084       .  S
C928        C929   1.411       .  A
C928        H935   1.083       .  S
C929        C930   1.411       .  A
C930        H936   1.084       .  S
C937        C938   1.408       .  A
C937        C942   1.413       .  A
C938        C939   1.394       .  A
C938        H947   1.083       .  S
C939        C940   1.399       .  A
C939        H948   1.084       .  S
C940        C946   1.405       .  A
C940        C941   1.413       .  A
C941        C943   1.406       .  A
C941        C942   1.416       .  A
C942        H949   1.084       .  S
C943        C944   1.406       .  A
C943        H950   1.083       .  S
C944        C945   1.409       .  A
C944        H951   1.083       .  S
C945        C946   1.408       .  A
C946        H952   1.084       .  S
C953        C954   1.404       .  A
C953        C958   1.405       .  A
C954        C955   1.398       .  A
C954        H963   1.083       .  S
C955        C956   1.403       .  A
C955        H964   1.084       .  S
C956        C962   1.404       .  A
C956        C957   1.413       .  A
C957        C959   1.400       .  A
C957        C958   1.401       .  A
C958        H965   1.084       .  S
C959        C960   1.395       .  A
C959        H966   1.084       .  S
C960        C961   1.407       .  A
C960        H967   1.083       .  S
C961        C962   1.408       .  A
C962        H968   1.084       .  S
C969        C970   1.408       .  A
C969        C974   1.406       .  A
C970        C971   1.398       .  A
C970        H979   1.083       .  S
C971        C972   1.402       .  A
C971        H980   1.084       .  S
C972        C978   1.406       .  A
C972        C973   1.414       .  A
C973        C975   1.399       .  A
C973        C974   1.401       .  A
C974        H981   1.084       .  S
C975        C976   1.394       .  A
C975        H982   1.084       .  S
C976        C977   1.407       .  A
C976        H983   1.083       .  S
C977        C978   1.407       .  A
C978        H984   1.084       .  S
C985        C986   1.405       .  A
C985        C990   1.405       .  A
C986        C987   1.394       .  A
C986        H995   1.083       .  S
C987        C988   1.401       .  A
C987        H996   1.084       .  S
C988        C994   1.398       .  A
C988        C989   1.413       .  A
C989        C991   1.401       .  A
C989        C990   1.399       .  A
C990        H997   1.084       .  S
C991        C992   1.395       .  A
C991        H998   1.084       .  S
C992        C993   1.407       .  A
C992        H999   1.083       .  S
C993        C994   1.406       .  A
C994       H1000   1.084       .  S
C1001      C1002   1.407       .  A
C1001      C1006   1.404       .  A
C1002      C1003   1.390       .  A
C1002      H1011   1.083       .  S
C1003      C1004   1.397       .  A
C1003      H1012   1.084       .  S
C1004      C1010   1.397       .  A
C1004      C1005   1.415       .  A
C1005      C1007   1.401       .  A
C1005      C1006   1.402       .  A
C1006      H1013   1.084       .  S
C1007      C1008   1.396       .  A
C1007      H1014   1.084       .  S
C1008      C1009   1.406       .  A
C1008      H1015   1.083       .  S
C1009      C1010   1.401       .  A
C1010      H1016   1.085       .  S
C1017      C1018   1.406       .  A
C1017      C1022   1.399       .  A
C1018      C1019   1.407       .  A
C1018      H1027   1.083       .  S
C1019      C1020   1.408       .  A
C1019      H1028   1.083       .  S
C1020      C1026   1.414       .  A
C1020      C1021   1.415       .  A
C1021      C1023   1.395       .  A
C1021      C1022   1.394       .  A
C1022      H1029   1.085       .  S
C1023      C1024   1.386       .  A
C1023      H1030   1.084       .  S
C1024      C1025   1.406       .  A
C1024      H1031   1.084       .  S
C1025      C1026   1.409       .  A
C1026      H1032   1.084       .  S
C1033      C1034   1.403       .  A
C1033      C1038   1.404       .  A
C1034      C1035   1.397       .  A
C1034      H1043   1.083       .  S
C1035      C1036   1.403       .  A
C1035      H1044   1.084       .  S
C1036      C1042   1.402       .  A
C1036      C1037   1.414       .  A
C1037      C1039   1.402       .  A
C1037      C1038   1.402       .  A
C1038      H1045   1.085       .  S
C1039      C1040   1.397       .  A
C1039      H1046   1.084       .  S
C1040      C1041   1.405       .  A
C1040      H1047   1.083       .  S
C1041      C1042   1.406       .  A
C1042      H1048   1.084       .  S
C1049      C1050   1.403       .  A
C1049      C1054   1.406       .  A
C1050      C1051   1.390       .  A
C1050      H1059   1.083       .  S
C1051      C1052   1.398       .  A
C1051      H1060   1.084       .  S
C1052      C1058   1.394       .  A
C1052      C1053   1.414       .  A
C1053      C1055   1.405       .  A
C1053      C1054   1.403       .  A
C1054      H1061   1.084       .  S
C1055      C1056   1.400       .  A
C1055      H1062   1.083       .  S
C1056      C1057   1.403       .  A
C1056      H1063   1.083       .  S
C1057      C1058   1.400       .  A
C1058      H1064   1.085       .  S
C1065      C1066   1.405       .  A
C1065      C1070   1.407       .  A
C1066      C1067   1.384       .  A
C1066      H1075   1.083       .  S
C1067      C1068   1.395       .  A
C1067      H1076   1.084       .  S
C1068      C1074   1.387       .  A
C1068      C1069   1.413       .  A
C1069      C1071   1.407       .  A
C1069      C1070   1.404       .  A
C1070      H1077   1.084       .  S
C1071      C1072   1.403       .  A
C1071      H1078   1.083       .  S
C1072      C1073   1.403       .  A
C1072      H1079   1.083       .  S
C1073      C1074   1.400       .  A
C1074      H1080   1.085       .  S
C1081      C1082   1.404       .  A
C1081      C1086   1.406       .  A
C1082      C1083   1.392       .  A
C1082      H1091   1.083       .  S
C1083      C1084   1.399       .  A
C1083      H1092   1.084       .  S
C1084      C1090   1.398       .  A
C1084      C1085   1.415       .  A
C1085      C1087   1.405       .  A
C1085      C1086   1.406       .  A
C1086      H1093   1.084       .  S
C1087      C1088   1.401       .  A
C1087      H1094   1.083       .  S
C1088      C1089   1.402       .  A
C1088      H1095   1.083       .  S
C1089      C1090   1.400       .  A
C1090      H1096   1.085       .  S
C1097      C1098   1.407       .  A
C1097      C1102   1.407       .  A
C1098      C1099   1.406       .  A
C1098      H1107   1.083       .  S
C1099      C1100   1.407       .  A
C1099      H1108   1.083       .  S
C1100      C1106   1.410       .  A
C1100      C1101   1.413       .  A
C1101      C1103   1.400       .  A
C1101      C1102   1.398       .  A
C1102      H1109   1.084       .  S
C1103      C1104   1.391       .  A
C1104      C1105   1.402       .  A
C1104      H1111   1.083       .  S
C1105      C1106   1.410       .  A
C1106      H1112   1.084       .  S
C1113      C1114   1.408       .  A
C1113      C1118   1.409       .  A
C1114      C1115   1.407       .  A
C1114      H1123   1.083       .  S
C1115      C1116   1.406       .  A
C1115      H1124   1.083       .  S
C1116      C1122   1.417       .  A
C1116      C1117   1.414       .  A
C1117      C1119   1.400       .  A
C1117      C1118   1.407       .  A
C1118      H1125   1.084       .  S
C1119      C1120   1.395       .  A
C1119      H1126   1.084       .  S
C1120      C1121   1.406       .  A
C1120      H1127   1.084       .  S
C1121      C1122   1.411       .  A
C1122      H1128   1.084       .  S
C1129      C1130   1.409       .  A
C1129      C1134   1.412       .  A
C1130      C1131   1.394       .  A
C1130      H1139   1.083       .  S
C1131      C1132   1.399       .  A
C1131      H1140   1.084       .  S
C1132      C1138   1.404       .  A
C1132      C1133   1.414       .  A
C1133      C1135   1.407       .  A
C1133      C1134   1.416       .  A
C1134      H1141   1.084       .  S
C1135      C1136   1.406       .  A
C1135      H1142   1.083       .  S
C1136      C1137   1.406       .  A
C1136      H1143   1.083       .  S
C1137      C1138   1.406       .  A
C1138      H1144   1.085       .  S
C1145      C1146   1.403       .  A
C1145      C1150   1.409       .  A
C1147      H1156   1.084       .  S
C1148      C1154   1.405       .  A
C1148      C1149   1.414       .  A
C1149      C1151   1.405       .  A
C1149      C1150   1.412       .  A
C1150      H1157   1.084       .  S
C1151      C1152   1.404       .  A
C1151      H1158   1.083       .  S
C1152      C1153   1.407       .  A
C1152      H1159   1.083       .  S
C1153      C1154   1.410       .  A
C1161      C1166   1.400       .  A
C1162      H1171   1.083       .  S
C1163      C1164   1.406       .  A
C1164      C1170   1.412       .  A
C1164      C1165   1.415       .  A
C1165      C1167   1.396       .  A
C1165      C1166   1.400       .  A
C1166      H1173   1.085       .  S
C1167      C1168   1.391       .  A
C1167      H1174   1.084       .  S
C1168      C1169   1.409       .  A
C1168      H1175   1.083       .  S
C1169      C1170   1.410       .  A
C1170      H1176   1.084       .  S
C1177      C1178   1.406       .  A
C1178      C1179   1.406       .  A
C1178      H1187   1.083       .  S
C1179      C1180   1.406       .  A
C1179      H1188   1.083       .  S
C1180      C1186   1.419       .  A
C1180      C1181   1.416   1_556  A
C1182      H1189   1.084       .  S
C1183      C1184   1.396       .  A
C1183      H1190   1.084       .  S
C1184      H1191   1.084       .  S
C1185      C1186   1.411   1_554  A
C1186      H1192   1.084       .  S
C1193      C1194   1.408       .  A
C1193      C1198   1.407       .  A
C1194      C1195   1.403       .  A
C1194      H1203   1.083       .  S
C1195      C1196   1.404       .  A
C1195      H1204   1.084       .  S
C1196      C1202   1.411       .  A
C1197      C1199   1.402       .  A
C1199      C1200   1.397       .  A
C1199      H1206   1.084       .  S
C1200      H1207   1.083       .  S
C1201      C1202   1.407       .  A
C1202      H1208   1.084       .  S
C1209      C1210   1.404       .  A
C1210      C1211   1.393       .  A
C1210      H1219   1.084       .  S
C1211      C1212   1.399       .  A
C1211      H1220   1.084       .  S
C1212      C1218   1.400       .  A
C1213      C1215   1.406       .  A
C1213      C1214   1.415       .  A
C1214      H1221   1.084       .  S
C1215      C1216   1.405       .  A
C1215      H1222   1.083       .  S
C1216      H1223   1.083       .  S
C1217      C1218   1.403       .  A
C1218      H1224   1.085       .  S
