geometry optimzed in LAMMPS
_audit_creation_date              2020-11-30 
_audit_creation_method            'lammps2cif' 
_symmetry_space_group_name_H-M    'P1' 
_symmetry_Int_Tables_number       1 
_symmetry_cell_setting            triclinic 
loop_ 
_symmetry_equiv_pos_as_xyz 
  x,y,z 
_cell_length_a                    45.90539244 
_cell_length_b                    24.022754242353862 
_cell_length_c                    31.89129146975737 
_cell_angle_alpha                 89.63866863629731 
_cell_angle_beta                  90.1770255366251 
_cell_angle_gamma                 90.20409696463535 
loop_ 
_atom_site_label 
_atom_site_type_symbol 
_atom_site_fract_x 
_atom_site_fract_y 
_atom_site_fract_z 
_atom_site_charge 
C1          C  0.96791083  0.76303294  0.20115414    -0.02200
C2          C  0.53566462  0.32097682  0.70015403    -0.02200
Zr3        Zr  0.63637763  0.22029838  0.22587269     2.17500
O4          O  0.61214514  0.17441295  0.16728193    -0.51000
O5          O  0.67296060  0.14788707  0.23869482    -0.74300
O6          O  0.66165724  0.23781484  0.15936832    -0.81000
O7          O  0.57612092  0.16588609  0.29740164    -0.82800
O8          O  0.68190530  0.32452570  0.16132597    -0.78400
O9          O  0.60328720  0.14210763  0.24067853    -0.90000
O10         O  0.70177536  0.17851857  0.29191672    -0.76000
O11         O  0.67859366  0.27115533  0.24740090    -0.85500
O12         O  0.63950269  0.21050447  0.30007461    -0.85200
O13         O  0.62820739  0.31571671  0.20474133    -0.71900
O14         O  0.59211522  0.25946020  0.25283183    -0.84100
Zr15       Zr  0.62974526  0.39321030  0.33090774     2.26400
Zr16       Zr  0.67024236  0.36652210  0.22844687     2.06300
Zr17       Zr  0.59591149  0.24974520  0.32720822     2.10000
Zr18       Zr  0.68139357  0.26142413  0.32150139     1.78800
O19         O  0.54364335  0.24819426  0.34021735    -0.92900
O20         O  0.73167044  0.28889968  0.30822695    -0.40700
O21         O  0.63796732  0.29868197  0.35141942    -0.77300
O22         O  0.67455928  0.35683002  0.30330399    -0.96000
O23         O  0.62675062  0.40556228  0.25680589    -0.89300
O24         O  0.58744810  0.34441685  0.30797822    -0.92200
C25         C  0.69466660  0.14287156  0.26406753     1.01600
C26         C  0.58276489  0.13322513  0.26736995     1.14500
C27         C  0.67608556  0.27843059  0.14280549     1.05300
O28         O  0.72321950  0.36790860  0.22432453    -0.94300
O29         O  0.68509760  0.45774562  0.25377832    -0.90100
O30         O  0.66521323  0.46666127  0.31861120    -0.83200
C31         C  0.68172092  0.48325618  0.28866309     1.11900
O32         O  0.55690560  0.32025802  0.17464170    -0.96300
Zr33       Zr  0.58519606  0.35518929  0.23378965     1.88900
O34         O  0.59217035  0.46254924  0.31929965    -0.72900
O35         O  0.66391952  0.43803014  0.17462884    -0.52200
O36         O  0.58986086  0.41337420  0.17124200    -0.96900
O37         O  0.53341633  0.34439280  0.24876052    -0.54100
O38         O  0.57147913  0.44730344  0.25557222    -0.73400
C39         C  0.57527842  0.47594467  0.28881991     0.98900
O40         O  0.64241087  0.44516795  0.39401280    -0.62300
O41         O  0.60665435  0.17700937  0.37848559    -0.57100
O42         O  0.60973106  0.37131045  0.40002665    -0.93800
O43         O  0.58481391  0.28987123  0.39415451    -0.92200
O44         O  0.68310896  0.19229497  0.37768083    -0.92500
O45         O  0.70385637  0.29016247  0.38721703    -0.91300
C46         C  0.59337816  0.33238756  0.41480815     1.17700
H47         H  0.64103886  0.17187960  0.30822766     0.33700
H48         H  0.69123049  0.37686543  0.31362304     0.44500
H49         H  0.57006080  0.35835297  0.32149632     0.38100
H50         H  0.62622745  0.31844389  0.17467265     0.34500
H51         H  0.74344045  0.26492278  0.32703592     0.26300
H52         H  0.68390538  0.44663540  0.16486904     0.32300
H53         H  0.60141692  0.44603234  0.18034934     0.38200
H54         H  0.70271994  0.17544981  0.37577652     0.32600
H55         H  0.62232532  0.19292992  0.39619548     0.31500
H56         H  0.54022454  0.21375399  0.35673366     0.33200
H57         H  0.52932247  0.37059255  0.27181328     0.36600
H58         H  0.69693925  0.32867984  0.39148796     0.36200
H59         H  0.66382301  0.44205596  0.39707575     0.28900
H60         H  0.62737830  0.15237260  0.15317533     0.33100
H61         H  0.54308460  0.35036988  0.16722581     0.36000
H62         H  0.58939769  0.17564657  0.39699428     0.28600
H63         H  0.63875045  0.48484752  0.38731377     0.41500
H64         H  0.72977695  0.38866197  0.24938687     0.31500
H65         H  0.73586021  0.27488211  0.27974329     0.39100
H66         H  0.53170388  0.30700803  0.26178436     0.31000
H67         H  0.65451543  0.41903224  0.15067062     0.31000
H68         H  0.60723653  0.20466621  0.14725212     0.31300
C69         C  0.71537842  0.28114467  0.84924539    -0.02200
Zr70       Zr  0.86786887  0.87067774  0.72597250     2.17500
O71         O  0.88550114  0.93187938  0.67005518    -0.51000
O72         O  0.83233293  0.94435196  0.74142471    -0.74300
O73         O  0.84551335  0.85313616  0.65769763    -0.81000
O74         O  0.91713375  0.93369531  0.80649675    -0.82800
O75         O  0.82121414  0.77041466  0.65947941    -0.78400
O76         O  0.90537505  0.94078025  0.73747530    -0.90000
O77         O  0.80252128  0.91173566  0.79277379    -0.76000
O78         O  0.82556096  0.81793902  0.74421780    -0.85500
O79         O  0.86260664  0.87785085  0.79997841    -0.85200
O80         O  0.87786054  0.77658434  0.70424754    -0.71900
O81         O  0.91229743  0.83318973  0.75480006    -0.84100
Zr82       Zr  0.87411245  0.69491509  0.82940655     2.26400
Zr83       Zr  0.83563501  0.72368687  0.72457843     2.06300
Zr84       Zr  0.90618951  0.84001593  0.82898073     2.10000
Zr85       Zr  0.82090734  0.82433615  0.81825162     1.78800
O86         O  0.95921372  0.84309525  0.83199286    -0.92900
O87         O  0.77115447  0.80046061  0.79818357    -0.40700
O88         O  0.86417157  0.78831280  0.85021390    -0.77300
O89         O  0.82976361  0.73009527  0.79918560    -0.96000
O90         O  0.87890760  0.68598299  0.75528136    -0.89300
O91         O  0.91625837  0.74660599  0.80974165    -0.92200
C92         C  0.81065510  0.94922706  0.76666349     1.01600
C93         C  0.91725945  0.95902567  0.77112688     1.14500
C94         C  0.82923548  0.81567447  0.64106309     1.05300
O95         O  0.78323716  0.71179580  0.71642648    -0.94300
O96         O  0.82140848  0.63103881  0.74947863    -0.90100
O97         O  0.84718686  0.61242852  0.80907715    -0.83200
C98         C  0.82877445  0.59934449  0.78039484     1.11900
O99         O  0.94519143  0.77365487  0.67324730    -0.96300
Zr100      Zr  0.92083262  0.73803475  0.73582799     1.88900
O101        O  0.91223043  0.62688139  0.82117577    -0.72900
O102        O  0.84824131  0.66082641  0.66785445    -0.52200
O103        O  0.92021256  0.67319976  0.67731921    -0.96900
O104        O  0.97213667  0.75739524  0.74980363    -0.54100
O105        O  0.93961224  0.65128468  0.76457856    -0.73400
C106        C  0.93302189  0.61877129  0.79521293     0.98900
O107        O  0.84860782  0.65237203  0.88876823    -0.62300
O108        O  0.90163165  0.90199957  0.88880702    -0.57100
O109        O  0.89804006  0.70857398  0.89750304    -0.93800
O110        O  0.91714058  0.79596959  0.89507228    -0.92200
O111        O  0.81948259  0.88708447  0.87787609    -0.92500
O112        O  0.79384915  0.78929003  0.87854248    -0.91300
C113        C  0.91209290  0.74961244  0.91375186     1.17700
H114        H  0.86050721  0.91586654  0.80882418     0.33700
H115        H  0.81349950  0.70778068  0.80831216     0.44500
H116        H  0.93335730  0.73324536  0.82420663     0.38100
H117        H  0.88049069  0.77504431  0.67415413     0.34500
H118        H  0.75862964  0.82322103  0.81650499     0.26300
H119        H  0.82957079  0.65348107  0.65326224     0.32300
H120        H  0.91346336  0.63736355  0.68938641     0.38200
H121        H  0.83601960  0.87540679  0.89586013     0.32600
H122        H  0.91935656  0.92561294  0.88828017     0.31500
H123        H  0.96501507  0.87144679  0.81093984     0.33200
H124        H  0.97555007  0.74510970  0.77908769     0.32200
H125        H  0.80862627  0.77041711  0.89621624     0.36200
H126        H  0.84501844  0.68328974  0.90846349     0.28900
H127        H  0.86808453  0.95081978  0.65850108     0.33100
H128        H  0.96240188  0.74954163  0.66920490     0.36000
H129        H  0.88553461  0.92753890  0.88131194     0.28600
H130        H  0.82888824  0.64281318  0.87836087     0.41500
H131        H  0.77585393  0.70623166  0.74529360     0.31500
H132        H  0.76855181  0.81702828  0.76990641     0.39100
H133        H  0.97353891  0.79848488  0.75076295     0.31000
H134        H  0.85959750  0.68381745  0.64781586     0.31000
H135        H  0.89240954  0.90723229  0.64740938     0.31300
C136        C  0.78883063  0.81272544  0.34871225    -0.02200
C137        C  0.46841790  0.81117382  0.31246966    -0.02200
C138        C  0.03472948  0.27608677  0.81614591    -0.02200
Zr139      Zr  0.14019611  0.36265012  0.28492168     2.17500
O140        O  0.12740322  0.42389647  0.34288224    -0.51000
O141        O  0.17535237  0.43569283  0.26460168    -0.74300
O142        O  0.16699423  0.34530548  0.34984488    -0.81000
O143        O  0.07443355  0.41093332  0.22181552    -0.82800
O144        O  0.18633509  0.25834028  0.34975388    -0.78400
O145        O  0.10316894  0.43527071  0.27695916    -0.90000
O146        O  0.19625213  0.40709240  0.20410213    -0.76000
O147        O  0.18091013  0.30977012  0.26147865    -0.85500
O148        O  0.13969582  0.36913362  0.21041654    -0.85200
O149        O  0.13099237  0.26811708  0.30874598    -0.71900
O150        O  0.09426198  0.32285811  0.26356579    -0.84100
Zr151      Zr  0.12721027  0.18438286  0.18524342     2.26400
Zr152      Zr  0.17195936  0.21573986  0.28379179     2.06300
Zr153      Zr  0.09447690  0.32948831  0.18913220     2.10000
Zr154      Zr  0.18003312  0.31546113  0.18697731     1.78800
O155        O  0.04164064  0.32886514  0.18189697    -0.92900
O156        O  0.23199587  0.30602873  0.20117905    -0.40700
O157        O  0.13486591  0.27838009  0.16248149    -0.77300
O158        O  0.17318002  0.22132734  0.20868703    -0.96000
O159        O  0.12698817  0.17620943  0.25982995    -0.89300
O160        O  0.08615746  0.23521515  0.20944892    -0.92200
C161        C  0.19211130  0.44300950  0.23275235     1.01600
C162        C  0.08133671  0.44293618  0.25224574     1.14500
C163        C  0.18127623  0.30540506  0.36710330     1.05300
O164        O  0.22499033  0.21482435  0.28501395    -0.94300
O165        O  0.18718678  0.12549053  0.25759365    -0.90100
O166        O  0.15945335  0.10611764  0.20015556    -0.83200
C167        C  0.17938149  0.09404429  0.22707157     1.11900
O168        O  0.06089146  0.27031315  0.34232426    -0.96300
Zr169      Zr  0.08622769  0.22764485  0.28364781     1.88900
O170        O  0.09148761  0.11329092  0.20133706    -0.72900
O171        O  0.16662823  0.14585856  0.33893850    -0.52200
O172        O  0.09059346  0.17026265  0.34658409    -0.96900
O173        O  0.03445700  0.24401458  0.27120556    -0.54100
O174        O  0.06763907  0.13703399  0.26097119    -0.73400
C175        C  0.07281326  0.10394998  0.23032082     0.98900
O176        O  0.14241770  0.13839979  0.12104428    -0.62300
O177        O  0.10015317  0.40342620  0.13713251    -0.57100
O178        O  0.10140954  0.20076731  0.11855986    -0.93800
O179        O  0.08214923  0.28747948  0.12354756    -0.92200
O180        O  0.17849097  0.36800488  0.12146152    -0.92500
O181        O  0.20429152  0.27005712  0.12872462    -0.91300
C182        C  0.08692579  0.24235393  0.10372992     1.17700
H183        H  0.14052530  0.40713825  0.20085367     0.33700
H184        H  0.18914402  0.19985281  0.19762382     0.44500
H185        H  0.06846934  0.22126590  0.19728466     0.38100
H186        H  0.13006317  0.26665127  0.33879223     0.34500
H187        H  0.24135062  0.33514759  0.18364435     0.26300
H188        H  0.18634540  0.14219894  0.35131352     0.32300
H189        H  0.10090281  0.13641456  0.33728756     0.38200
H190        H  0.16452686  0.39848514  0.12659476     0.32600
H191        H  0.11039331  0.38574238  0.11342995     0.31500
H192        H  0.03770210  0.34855132  0.15511928     0.33200
H193        H  0.02931939  0.22220396  0.24601236     0.32200
H194        H  0.18851196  0.24988235  0.11391607     0.36200
H195        H  0.16397544  0.13953085  0.12150775     0.28900
H196        H  0.14571432  0.44280416  0.35130120     0.33100
H197        H  0.04695866  0.24184105  0.35263455     0.36000
H198        H  0.08020859  0.41025716  0.12644812     0.28600
H199        H  0.13725911  0.09863997  0.12492118     0.41500
H200        H  0.23071915  0.21151605  0.25522946     0.31500
H201        H  0.23467853  0.31922099  0.23029348     0.39100
H202        H  0.03333029  0.28335590  0.26188367     0.31000
H203        H  0.15495640  0.16410956  0.36094734     0.31000
H204        H  0.12217222  0.39945880  0.36683735     0.31300
C205        C  0.21178610  0.31859663  0.66214573    -0.02200
Zr206      Zr  0.36536950  0.72689064  0.77551808     2.17500
O207        O  0.38509121  0.66612093  0.83022785    -0.51000
O208        O  0.32740415  0.65731918  0.76080901    -0.74300
O209        O  0.34419694  0.74209823  0.84538734    -0.81000
O210        O  0.42107653  0.67533326  0.69768473    -0.82800
O211        O  0.32140225  0.82598555  0.84494616    -0.78400
O212        O  0.40127158  0.65382650  0.76098707    -0.90000
O213        O  0.29696921  0.69186738  0.71077455    -0.76000
O214        O  0.32269898  0.77820853  0.75667649    -0.85500
O215        O  0.36091432  0.72221300  0.70103608    -0.85200
O216        O  0.37451985  0.82097421  0.79848911    -0.71900
O217        O  0.40933060  0.76744780  0.74737083    -0.84100
Zr218      Zr  0.37032843  0.90758574  0.67616909     2.26400
Zr219      Zr  0.33168743  0.87210127  0.77860927     2.06300
Zr220      Zr  0.40400983  0.76397954  0.67292642     2.10000
Zr221      Zr  0.31890390  0.77449045  0.68213611     1.78800
O222        O  0.45678778  0.76385173  0.66566107    -0.92900
O223        O  0.26858902  0.80367791  0.69167546    -0.40700
O224        O  0.36173310  0.81475679  0.65204097    -0.77300
O225        O  0.32626107  0.86827478  0.70400577    -0.96000
O226        O  0.37486818  0.91247421  0.75027779    -0.89300
O227        O  0.41308097  0.85717122  0.69441796    -0.92200
C228        C  0.30471446  0.65438252  0.73710079     1.01600
C229        C  0.41822330  0.64377004  0.72986673     1.14500
C230        C  0.32919706  0.78054984  0.86307145     1.05300
O231        O  0.27888089  0.87301356  0.78559463    -0.94300
O232        O  0.31607675  0.96447128  0.75494480    -0.90100
O233        O  0.34186504  0.98686739  0.69624652    -0.83200
C234        C  0.32329410  0.99774954  0.72487541     1.11900
O235        O  0.44152823  0.82069150  0.82923231    -0.96300
Zr236      Zr  0.41733622  0.86173765  0.76840802     1.88900
O237        O  0.40531095  0.98163498  0.68981223    -0.72900
O238        O  0.34086583  0.93813720  0.83483531    -0.52200
O239        O  0.41898708  0.92330431  0.82872035    -0.96900
O240        O  0.46828871  0.84485582  0.75125842    -0.54100
O241        O  0.43298761  0.95333409  0.74519654    -0.73400
C242        C  0.42539447  0.98923453  0.71732910     0.98900
O243        O  0.34263239  0.95101393  0.61910730    -0.62300
O244        O  0.39736861  0.69617680  0.61717910    -0.57100
O245        O  0.39548593  0.89860218  0.60967124    -0.93800
O246        O  0.41539484  0.81187177  0.60809017    -0.92200
O247        O  0.31933731  0.70921475  0.62388151    -0.92500
O248        O  0.29547564  0.80453373  0.61726782    -0.91300
C249        C  0.40981004  0.85959889  0.59188064     1.17700
H250        H  0.35934226  0.68426193  0.69215928     0.33700
H251        H  0.30976021  0.88989734  0.69513064     0.44500
H252        H  0.43006318  0.87248493  0.68064268     0.38100
H253        H  0.37737733  0.82222788  0.82845380     0.34500
H254        H  0.25670726  0.77288631  0.68009020     0.26300
H255        H  0.32257385  0.93895284  0.85117049     0.32300
H256        H  0.40562379  0.95418222  0.82143546     0.38200
H257        H  0.32698493  0.67385023  0.63547379     0.32600
H258        H  0.38173805  0.71178759  0.59925063     0.31500
H259        H  0.46123783  0.72923771  0.65031025     0.33200
H260        H  0.47273433  0.87000870  0.72741862     0.32200
H261        H  0.30157634  0.84382585  0.61367194     0.36200
H262        H  0.34482218  0.92650947  0.59449913     0.28900
H263        H  0.36815234  0.64757048  0.84354138     0.33100
H264        H  0.46055350  0.83998086  0.83149789     0.36000
H265        H  0.41522530  0.69919713  0.59993792     0.28600
H266        H  0.32192548  0.94613594  0.62705357     0.41500
H267        H  0.27531110  0.88612319  0.81448970     0.31500
H268        H  0.26537127  0.80141609  0.72230190     0.39100
H269        H  0.46851777  0.80700748  0.73917265     0.31000
H270        H  0.35508053  0.91936666  0.85352903     0.31000
H271        H  0.39318404  0.69118248  0.85192336     0.31300
C272        C  0.29119530  0.77651679  0.15719035    -0.02200
C273        C  0.31288728  0.75380859  0.04853482     0.20600
C274        C  0.32584747  0.72542414  0.01488644    -0.39300
C275        C  0.32147220  0.74906110  0.97482971     0.19600
C276        C  0.30549510  0.79725855  0.96909417     0.22200
C277        C  0.29271688  0.82556546  0.00265623    -0.39800
C278        C  0.29698156  0.80186672  0.04244762     0.21000
N279        N  0.31342677  0.73987197  0.08947866    -0.33000
C280        C  0.29712929  0.77853340  0.10974588    -0.10600
C281        C  0.28716122  0.81868326  0.08107229    -0.29400
N282        N  0.30528206  0.81264405  0.92856275    -0.46000
C283        C  0.32134393  0.77435713  0.90788834    -0.05300
C284        C  0.33173265  0.73367936  0.93574477    -0.22600
H285        H  0.33846525  0.68791171  0.01956514     0.19200
H286        H  0.28037804  0.86344825  0.99810445     0.18000
H287        H  0.27437193  0.85543220  0.08711082     0.14200
H288        H  0.34587081  0.69904262  0.92867607     0.14100
H289        H  0.32382854  0.70544960  0.10287802     0.32300
H290        H  0.29555182  0.84827554  0.91594217     0.35000
C291        C  0.23339995  0.45891848  0.69197336     0.20600
C292        C  0.23051818  0.51676916  0.69529209    -0.39300
C293        C  0.25327023  0.54423254  0.71616981     0.19600
C294        C  0.27682242  0.51620160  0.73329897     0.22200
C295        C  0.27950978  0.45818360  0.73022583    -0.39800
C296        C  0.25701943  0.43093118  0.70851087     0.21000
N297        N  0.21512223  0.42356909  0.67269134    -0.33000
C298        C  0.22726453  0.37218358  0.67598193    -0.10600
C299        C  0.25346676  0.37566305  0.69882942    -0.29400
N300        N  0.29706906  0.55234378  0.74723114    -0.46000
C301        C  0.28663722  0.60366854  0.73786335    -0.05300
C302        C  0.25914513  0.60016440  0.71916313    -0.22600
H303        H  0.21254079  0.53903163  0.68102799     0.19200
H304        H  0.29829261  0.43615703  0.74234841     0.18000
H305        H  0.26777563  0.34241970  0.70870229     0.14200
H306        H  0.24648071  0.63382422  0.70574594     0.14100
H307        H  0.19478913  0.43392244  0.66035653     0.32300
H308        H  0.31784458  0.54261781  0.75847162     0.35000
C309        C  0.26645468  0.21150953  0.67998337     0.20600
C310        C  0.29312339  0.18430758  0.67437617    -0.39300
C311        C  0.29634880  0.13408320  0.69655558     0.19600
C312        C  0.27481337  0.11292741  0.72255579     0.22200
C313        C  0.24811652  0.13992192  0.72772220    -0.39800
C314        C  0.24482139  0.18977424  0.70532094     0.21000
N315        N  0.25759858  0.25907985  0.66183005    -0.33000
C316        C  0.23001035  0.26803372  0.67565501    -0.10600
C317        C  0.22133665  0.22470376  0.70252161    -0.29400
N318        N  0.28246259  0.06306410  0.73824687    -0.46000
C319        C  0.30883147  0.05192741  0.72148360    -0.05300
C320        C  0.31830887  0.09541174  0.69558597    -0.22600
H321        H  0.30980887  0.20034285  0.65359860     0.19200
H322        H  0.23091916  0.12276778  0.74707319     0.18000
H323        H  0.20055861  0.21847021  0.71772644     0.14200
H324        H  0.33791797  0.09708963  0.67683323     0.14100
H325        H  0.26950725  0.28393642  0.64098157     0.32300
H326        H  0.26976759  0.03679647  0.75701945     0.35000
C327        C  0.20423170  0.29156349  0.47370032     0.20600
C328        C  0.21378750  0.26280259  0.50952527    -0.39300
C329        C  0.20974362  0.29018772  0.54774356     0.19600
C330        C  0.19699608  0.34194967  0.55039204     0.22200
C331        C  0.18726502  0.37078334  0.51451095    -0.39800
C332        C  0.19150130  0.34359012  0.47609571     0.21000
N333        N  0.20397093  0.27289818  0.43406185    -0.33000
C334        C  0.19074841  0.31308159  0.41092341    -0.10600
C335        C  0.18296537  0.35813611  0.43601737    -0.29400
N336        N  0.19541481  0.35836519  0.59061671    -0.46000
C337        C  0.20784658  0.31724251  0.61412784    -0.05300
C338        C  0.21645764  0.27356431  0.58783903    -0.22600
H339        H  0.22333817  0.22175003  0.50783212     0.19200
H340        H  0.17683219  0.41102035  0.51639224     0.18000
H341        H  0.17092764  0.39486415  0.42667397     0.14200
H342        H  0.22620042  0.23420294  0.59649639     0.14100
H343        H  0.21088883  0.23390179  0.42382936     0.32300
H344        H  0.18605150  0.39523143  0.60084830     0.35000
C345        C  0.22827022  0.56048607  0.18896264     0.20600
C346        C  0.24103501  0.59051404  0.15620225    -0.39300
C347        C  0.25256621  0.64217423  0.16692812     0.19600
C348        C  0.25164818  0.66263893  0.20725995     0.22200
C349        C  0.23824771  0.63277687  0.24027564    -0.39800
C350        C  0.22644164  0.58055321  0.22944549     0.21000
N351        N  0.21657344  0.50981745  0.18627918    -0.33000
C352        C  0.20673677  0.49665652  0.22505999    -0.10600
C353        C  0.21224789  0.53999718  0.25317048    -0.29400
N354        N  0.26518073  0.71234040  0.20893804    -0.46000
C355        C  0.27481449  0.72338051  0.16934704    -0.05300
C356        C  0.26673800  0.68043077  0.14230516    -0.22600
H357        H  0.24221628  0.57438711  0.12463141     0.19200
H358        H  0.23735543  0.64869355  0.27191308     0.18000
H359        H  0.20698667  0.54136021  0.28619888     0.14200
H360        H  0.27049294  0.67692617  0.10899388     0.14100
H361        H  0.21518746  0.48566485  0.15919549     0.32300
H362        H  0.26783961  0.73729570  0.23539161     0.35000
C363        C  0.25647059  0.89750589  0.20379055     0.20600
C364        C  0.25440344  0.94500146  0.22900399    -0.39300
C365        C  0.22904820  0.97672138  0.22369450     0.19600
C366        C  0.20742931  0.96214883  0.19542423     0.22200
C367        C  0.20927137  0.91406371  0.17078878    -0.39800
C368        C  0.23463336  0.88238685  0.17614564     0.21000
N369        N  0.27912208  0.86252802  0.20115386    -0.33000
C370        C  0.27196775  0.82490792  0.17107605    -0.10600
C371        C  0.24387918  0.83533876  0.15575080    -0.29400
N372        N  0.18658014  0.00122945  0.19401324    -0.46000
C373        C  0.19491236  0.04097361  0.22163593    -0.05300
C374        C  0.22119157  0.02687836  0.24106538    -0.22600
H375        H  0.27168009  0.95728839  0.25022360     0.19200
H376        H  0.19260095  0.90304615  0.14821442     0.18000
H377        H  0.23223215  0.81238070  0.13185077     0.14200
H378        H  0.23356210  0.05131652  0.26333026     0.14100
H379        H  0.29815754  0.86472036  0.21904514     0.32300
H380        H  0.16824630  0.00163067  0.17452531     0.35000
C381        C  0.13707156  0.30450028  0.69916052     0.20600
C382        C  0.10697429  0.29346307  0.69723407    -0.39300
C383        C  0.09285407  0.28799809  0.73614939     0.19600
C384        C  0.10764577  0.29248438  0.77376628     0.22200
C385        C  0.13738012  0.30500810  0.77569443    -0.39800
C386        C  0.15135991  0.31105692  0.73705516     0.21000
N387        N  0.15601948  0.30816380  0.66704470    -0.33000
C388        C  0.18258041  0.31709235  0.68488837    -0.10600
C389        C  0.18015474  0.32043219  0.72848848    -0.29400
N390        N  0.08959552  0.28552783  0.80630693    -0.46000
C391        C  0.06261650  0.27714367  0.78981483    -0.05300
C392        C  0.06394732  0.27924569  0.74581664    -0.22600
H393        H  0.09548710  0.28895173  0.66775714     0.19200
H394        H  0.14887895  0.30918397  0.80519917     0.18000
H395        H  0.19763375  0.32562259  0.75100939     0.14200
H396        H  0.04593643  0.27764811  0.72387487     0.14100
H397        H  0.15121282  0.30265339  0.63531556     0.32300
H398        H  0.09541235  0.28934931  0.83783841     0.35000
C399        C  0.06860820  0.22200598  0.99537763     0.20600
C400        C  0.06857156  0.19726141  0.95546402    -0.39300
C401        C  0.05768705  0.23053406  0.92242383     0.19600
C402        C  0.04786792  0.28418575  0.92872378     0.22200
C403        C  0.04770029  0.30860439  0.96836511    -0.39800
C404        C  0.05821740  0.27540551  0.00117484     0.21000
N405        N  0.07928927  0.20107271  0.03171512    -0.33000
C406        C  0.07547344  0.24185460  0.06046939    -0.10600
C407        C  0.06212007  0.28828844  0.04245484    -0.29400
N408        N  0.03913788  0.30773049  0.89260001    -0.46000
C409        C  0.04289160  0.26867043  0.86251434    -0.05300
C410        C  0.05469498  0.21999458  0.88012974    -0.22600
H411        H  0.07672760  0.15564009  0.95039590     0.19200
H412        H  0.04024399  0.35076531  0.97325856     0.18000
H413        H  0.05732916  0.32769286  0.05718742     0.14200
H414        H  0.06003604  0.18188227  0.86400877     0.14100
H415        H  0.08948939  0.16269700  0.03624548     0.32300
H416        H  0.03139894  0.34830485  0.88912771     0.35000
C417        C  0.40812189  0.81556832  0.23806945     0.20600
C418        C  0.38991301  0.83887574  0.20727066    -0.39300
C419        C  0.36408500  0.80951288  0.19915263     0.19600
C420        C  0.35716954  0.76034395  0.21964016     0.22200
C421        C  0.37535062  0.73713790  0.25050687    -0.39800
C422        C  0.40092358  0.76700564  0.25914633     0.21000
N423        N  0.43314899  0.83687089  0.25285192    -0.33000
C424        C  0.44168344  0.80252095  0.28462099    -0.10600
C425        C  0.42216406  0.75797181  0.28890255    -0.29400
N426        N  0.33106364  0.74123585  0.20713068    -0.46000
C427        C  0.32080126  0.77916632  0.17897310    -0.05300
C428        C  0.34115580  0.82198862  0.17290620    -0.22600
H429        H  0.39512291  0.87772057  0.19157812     0.19200
H430        H  0.36962792  0.69939954  0.26732065     0.18000
H431        H  0.42311454  0.72432632  0.31159394     0.14200
H432        H  0.33897524  0.85815033  0.15273434     0.14100
H433        H  0.44319410  0.87317174  0.24198141     0.32300
H434        H  0.32099728  0.70486834  0.21786450     0.35000
C435        C  0.43313757  0.84498609  0.41102241     0.20600
C436        C  0.40998231  0.85631984  0.43815078    -0.39300
C437        C  0.41765743  0.86422560  0.48024407     0.19600
C438        C  0.44616657  0.86019173  0.49430624     0.22200
C439        C  0.46937009  0.85017452  0.46698342    -0.39800
C440        C  0.46169885  0.84321950  0.42481872     0.21000
N441        N  0.43144497  0.83311277  0.37003726    -0.33000
C442        C  0.45924277  0.82362632  0.35742541    -0.10600
C443        C  0.47870166  0.83130892  0.39076667    -0.29400
N444        N  0.44728096  0.86224197  0.53631215    -0.46000
C445        C  0.41936241  0.86854031  0.54886683    -0.05300
C446        C  0.40027884  0.87042596  0.51491577    -0.22600
H447        H  0.38756515  0.85703372  0.42753925     0.19200
H448        H  0.49161455  0.84624922  0.47793620     0.18000
H449        H  0.50218342  0.82743676  0.39017450     0.14200
H450        H  0.37670695  0.87070366  0.51579772     0.14100
H451        H  0.41241992  0.83240724  0.35203198     0.32300
H452        H  0.46558133  0.85631418  0.55535868     0.35000
C453        C  0.99482245  0.15640629  0.77444595     0.20600
C454        C  0.98845362  0.11151035  0.74778103    -0.39300
C455        C  0.96433363  0.07872449  0.75939081     0.19600
C456        C  0.94838666  0.08957923  0.79521968     0.22200
C457        C  0.95461908  0.13436835  0.82143962    -0.39800
C458        C  0.97820820  0.16740888  0.80938579     0.21000
N459        N  0.01726623  0.19236377  0.77178264    -0.33000
C460        C  0.01439440  0.22773880  0.80477955    -0.10600
C461        C  0.99032589  0.21222454  0.82903390    -0.29400
N462        N  0.92860534  0.04968254  0.80212654    -0.46000
C463        C  0.93165455  0.01317017  0.77042984    -0.05300
C464        C  0.95345684  0.02992926  0.74265173    -0.22600
H465        H  0.00167212  0.10203725  0.72072020     0.19200
H466        H  0.94241861  0.14209872  0.84979674     0.18000
H467        H  0.98344157  0.22912501  0.85869383     0.14200
H468        H  0.96174185  0.00727570  0.71602117     0.14100
H469        H  0.03364216  0.19077109  0.74931905     0.32300
H470        H  0.91479245  0.04599730  0.82799088     0.35000
C471        C  0.98138784  0.50325783  0.78969631     0.20600
C472        C  0.00490950  0.47169721  0.77518450    -0.39300
C473        C  0.00652173  0.41711924  0.79090120     0.19600
C474        C  0.98620359  0.39566180  0.81847385     0.22200
C475        C  0.96285900  0.42724369  0.83324935    -0.39800
C476        C  0.96136463  0.48183508  0.81793545     0.21000
N477        N  0.97443160  0.55566007  0.77879606    -0.33000
C478        C  0.94986214  0.56744973  0.80042874    -0.10600
C479        C  0.94122398  0.52262494  0.82544049    -0.29400
N480        N  0.99300035  0.34347384  0.82965733    -0.46000
C481        C  0.01819497  0.33093117  0.80956228    -0.05300
C482        C  0.02712249  0.37657113  0.78489900    -0.22600
H483        H  0.02081936  0.48843308  0.75348231     0.19200
H484        H  0.94707920  0.41058155  0.85518257     0.18000
H485        H  0.92213215  0.51956971  0.84517842     0.14200
H486        H  0.04662926  0.38106594  0.76627554     0.14100
H487        H  0.98533390  0.58130949  0.75737158     0.32300
H488        H  0.98175174  0.31956959  0.85165810     0.35000
C489        C  0.78829001  0.82510876  0.46285356     0.20600
C490        C  0.77664459  0.81863947  0.50341534    -0.39300
C491        C  0.79662892  0.82352304  0.53677516     0.19600
C492        C  0.82570698  0.83609843  0.53011910     0.22200
C493        C  0.83740188  0.84132952  0.48964595    -0.39800
C494        C  0.81765535  0.83432651  0.45640794     0.21000
N495        N  0.77428571  0.81938813  0.42595254    -0.33000
C496        C  0.79507219  0.82143376  0.39563119    -0.10600
C497        C  0.82237547  0.83220550  0.41380598    -0.29400
N498        N  0.84035395  0.83760195  0.56664031    -0.46000
C499        C  0.82080484  0.82410447  0.59682681    -0.05300
C500        C  0.79323475  0.81487011  0.57947420    -0.22600
H501        H  0.75392236  0.80863768  0.50854676     0.19200
H502        H  0.86040853  0.84841208  0.48441635     0.18000
H503        H  0.84313139  0.83700853  0.39820339     0.14200
H504        H  0.77360962  0.80229492  0.59574621     0.14100
H505        H  0.75199922  0.81238374  0.42175208     0.32300
H506        H  0.86267135  0.84449869  0.57064958     0.35000
C507        C  0.76123371  0.17212525  0.80388742     0.20600
C508        C  0.78469608  0.14949253  0.78127273    -0.39300
C509        C  0.78442049  0.09119539  0.77668438     0.19600
C510        C  0.76235114  0.05861663  0.79336486     0.22200
C511        C  0.73904734  0.08121819  0.81572955    -0.39800
C512        C  0.73946872  0.13904722  0.82041011     0.21000
N513        N  0.75618522  0.22600892  0.81248764    -0.33000
C514        C  0.73087525  0.22760833  0.83489941    -0.10600
C515        C  0.72007648  0.17335035  0.84020373    -0.29400
N516        N  0.76802315  0.00448236  0.78819672    -0.46000
C517        C  0.79408335  0.00168898  0.76847183    -0.05300
C518        C  0.80489367  0.05516353  0.76007916    -0.22600
H519        H  0.80210946  0.17520462  0.76891120     0.19200
H520        H  0.72211154  0.05541891  0.82932627     0.18000
H521        H  0.69979757  0.16011689  0.85404275     0.14200
H522        H  0.82595723  0.06606420  0.74720529     0.14100
H523        H  0.76909560  0.25929672  0.80241592     0.32300
H524        H  0.75577222  0.97124224  0.80008486     0.35000
C525        C  0.78088579  0.48174843  0.78233573     0.20600
C526        C  0.75483157  0.45245760  0.77494352    -0.39300
C527        C  0.75008178  0.40557997  0.80064219     0.19600
C528        C  0.77000426  0.38859611  0.83062207     0.22200
C529        C  0.79591425  0.41787629  0.83813547    -0.39800
C530        C  0.80043630  0.46517999  0.81306435     0.21000
N531        N  0.78946899  0.53008478  0.76464125    -0.33000
C532        C  0.81436625  0.54474250  0.78484879    -0.10600
C533        C  0.82196672  0.50497327  0.81498972    -0.29400
N534        N  0.76041290  0.34317973  0.85107971    -0.46000
C535        C  0.73361151  0.33154214  0.83520154    -0.05300
C536        C  0.72671243  0.36955739  0.80302209    -0.22600
H537        H  0.73906990  0.46603907  0.75176755     0.19200
H538        H  0.81104460  0.40563425  0.86257423     0.18000
H539        H  0.83991648  0.50661311  0.83705359     0.14200
H540        H  0.70740708  0.37058845  0.78349005     0.14100
H541        H  0.77818741  0.55327744  0.74207395     0.32300
H542        H  0.77152511  0.32121830  0.87450121     0.35000
C543        C  0.52810313  0.02853015  0.27494881     0.20600
C544        C  0.50097964  0.00731701  0.28712040    -0.39300
C545        C  0.49860277  0.94933766  0.28791252     0.19600
C546        C  0.52146320  0.91473872  0.27764771     0.22200
C547        C  0.54870208  0.93606779  0.26507774    -0.39800
C548        C  0.55108969  0.99449002  0.26393486     0.21000
N549        N  0.53637930  0.08201081  0.27524611    -0.33000
C550        C  0.56480800  0.08266760  0.26410108    -0.10600
C551        C  0.57482532  0.02884959  0.25634350    -0.29400
N552        N  0.51399833  0.86104800  0.28380111    -0.46000
C553        C  0.48602706  0.86162077  0.29784446    -0.05300
C554        C  0.47591108  0.91627587  0.30071862    -0.22600
H555        H  0.48328083  0.03405138  0.29661672     0.19200
H556        H  0.56689436  0.90924006  0.25795392     0.18000
H557        H  0.59688624  0.01631692  0.24928785     0.14200
H558        H  0.45494149  0.92985804  0.31216503     0.14100
H559        H  0.52375577  0.11596863  0.28430253     0.32300
H560        H  0.52755774  0.82671013  0.27985324     0.35000
C561        C  0.53587297  0.59648393  0.31851894     0.20600
C562        C  0.52249065  0.63381119  0.34584597    -0.39300
C563        C  0.50894829  0.67952598  0.32667412     0.19600
C564        C  0.50884632  0.68771431  0.28375416     0.22200
C565        C  0.52161888  0.64965987  0.25629654    -0.39800
C566        C  0.53505235  0.60372296  0.27540093     0.21000
N567        N  0.55071746  0.55039982  0.32890695    -0.33000
C568        C  0.55897602  0.52782290  0.29206477    -0.10600
C569        C  0.54954733  0.55963636  0.25798620    -0.29400
N570        N  0.49514420  0.73522430  0.27365253    -0.46000
C571        C  0.48623390  0.75769312  0.31038514    -0.05300
C572        C  0.49418085  0.72307174  0.34410903    -0.22600
H573        H  0.52281586  0.62796760  0.37952952     0.19200
H574        H  0.52129951  0.65556026  0.22262484     0.18000
H575        H  0.55313817  0.55183006  0.22501395     0.14200
H576        H  0.48958142  0.72768982  0.37708853     0.14100
H577        H  0.55463063  0.53483981  0.35906105     0.32300
H578        H  0.49171857  0.75123564  0.24351985     0.35000
C579        C  0.70285109  0.29681402  0.03819609     0.20600
C580        C  0.71602366  0.32560050  0.00471894    -0.39300
C581        C  0.71250798  0.30166962  0.96495767     0.19600
C582        C  0.69682019  0.25330060  0.95894787     0.22200
C583        C  0.68356333  0.22448575  0.99238555    -0.39800
C584        C  0.68734593  0.24798512  0.03227364     0.21000
N585        N  0.70182369  0.31241202  0.07857324    -0.33000
C586        C  0.68554907  0.27331083  0.09870396    -0.10600
C587        C  0.67628399  0.23217873  0.07082584    -0.29400
N588        N  0.69570180  0.24049268  0.91802570    -0.46000
C589        C  0.71148145  0.28000668  0.89725410    -0.05300
C590        C  0.72175800  0.31963399  0.92605055    -0.22600
H591        H  0.72778231  0.36424597  0.00921848     0.19200
H592        H  0.67091049  0.18694188  0.98760523     0.18000
H593        H  0.66214318  0.19707801  0.07744498     0.14200
H594        H  0.73362662  0.35770466  0.91983464     0.14100
H595        H  0.71078353  0.34859301  0.09134501     0.32300
H596        H  0.68358947  0.20799145  0.90529462     0.35000
C597        C  0.72153072  0.00468118  0.27291219     0.20600
C598        C  0.71863774  0.94689684  0.27902336    -0.39300
C599        C  0.74168509  0.92077364  0.30049698     0.19600
C600        C  0.76572187  0.94997034  0.31467577     0.22200
C601        C  0.76873012  0.00749168  0.30846106    -0.39800
C602        C  0.74571281  0.03357155  0.28718662     0.21000
N603        N  0.70121853  0.04012747  0.25806709    -0.33000
C604        C  0.71237876  0.09190662  0.26375913    -0.10600
C605        C  0.74028307  0.08923293  0.28118369    -0.29400
N606        N  0.78431639  0.91600594  0.33475948    -0.46000
C607        C  0.77253684  0.86414137  0.33291617    -0.05300
C608        C  0.74551481  0.86587838  0.31225005    -0.22600
H609        H  0.69946503  0.92423649  0.26894909     0.19200
H610        H  0.78718239  0.03057749  0.32058525     0.18000
H611        H  0.75353391  0.12363779  0.29207725     0.14200
H612        H  0.73074191  0.83177748  0.30591306     0.14100
H613        H  0.68000918  0.03003380  0.24881698     0.32300
H614        H  0.80434227  0.92710960  0.34799583     0.35000
C615        C  0.72145801  0.59801607  0.33005519     0.20600
C616        C  0.73407129  0.63062779  0.36156761    -0.39300
C617        C  0.74824347  0.67905662  0.34782299     0.19600
C618        C  0.74973453  0.69389247  0.30597415     0.22200
C619        C  0.73753161  0.66071300  0.27425578    -0.39800
C620        C  0.72338877  0.61202362  0.28797146     0.21000
N621        N  0.70621959  0.55083885  0.33524593    -0.33000
C622        C  0.69862702  0.53412151  0.29623469    -0.10600
C623        C  0.70906299  0.57097124  0.26574977    -0.29400
N624        N  0.76397563  0.74244372  0.30138091    -0.46000
C625        C  0.77151979  0.75927437  0.34060837    -0.05300
C626        C  0.76241508  0.71966708  0.37030950    -0.22600
H627        H  0.73269549  0.61937390  0.39442415     0.19200
H628        H  0.73878085  0.67215131  0.24142922     0.18000
H629        H  0.70614873  0.56850743  0.23212033     0.14200
H630        H  0.76590315  0.71932134  0.40382426     0.14100
H631        H  0.70147911  0.53088381  0.36363467     0.32300
H632        H  0.76839929  0.76302949  0.27314740     0.35000
C633        C  0.64865769  0.27180905  0.78791701     0.20600
C634        C  0.63036735  0.25121743  0.75654096    -0.39300
C635        C  0.60466135  0.28087667  0.74983268     0.19600
C636        C  0.59763185  0.32827938  0.77193223     0.22200
C637        C  0.61598299  0.34885636  0.80381680    -0.39800
C638        C  0.64171039  0.31834364  0.81109860     0.21000
N639        N  0.67486389  0.25190099  0.79868740    -0.33000
C640        C  0.68503662  0.28541639  0.82957057    -0.10600
C641        C  0.66470143  0.32730223  0.83829636    -0.29400
N642        N  0.57216391  0.34959800  0.75802847    -0.46000
C643        C  0.56287688  0.31463953  0.72729285    -0.05300
C644        C  0.58278333  0.27147204  0.72162439    -0.22600
H645        H  0.63589741  0.21488344  0.73834565     0.19200
H646        H  0.61080249  0.38598720  0.82128927     0.18000
H647        H  0.66707895  0.36098905  0.86043503     0.14200
H648        H  0.58149397  0.23801047  0.69910267     0.14100
H649        H  0.68541953  0.21892728  0.78407315     0.32300
H650        H  0.56202012  0.38564868  0.76867434     0.35000
C651        C  0.49634846  0.19625401  0.73266672     0.20600
C652        C  0.49334546  0.14375636  0.75159142    -0.39300
C653        C  0.47055353  0.11067941  0.73626135     0.19600
C654        C  0.45186950  0.12869052  0.70487653     0.22200
C655        C  0.45443644  0.18184410  0.68668233    -0.39800
C656        C  0.47747437  0.21475297  0.70174749     0.21000
N657        N  0.51842693  0.23228551  0.73793155    -0.33000
C658        C  0.51414763  0.27371406  0.70934242    -0.10600
C659        C  0.48801425  0.26511212  0.68752903    -0.29400
N660        N  0.43338161  0.08774975  0.69376521    -0.46000
C661        C  0.44049791  0.04339081  0.71820518    -0.05300
C662        C  0.46339929  0.05634369  0.74532324    -0.22600
H663        H  0.50857156  0.12864329  0.77497955     0.19200
H664        H  0.44046596  0.19548812  0.66125060     0.18000
H665        H  0.47931322  0.29015536  0.66211884     0.14200
H666        H  0.47382234  0.02921196  0.76802101     0.14100
H667        H  0.53585602  0.22708876  0.75866443     0.32300
H668        H  0.41721217  0.08966201  0.67068511     0.35000
C669        C  0.49051562  0.43625978  0.73509747     0.20600
C670        C  0.47138518  0.46547538  0.76160088    -0.39300
C671        C  0.45921694  0.51454438  0.74452241     0.19600
C672        C  0.46576837  0.53227174  0.70426370     0.22200
C673        C  0.48435344  0.50295225  0.67789013    -0.39800
C674        C  0.49637940  0.45458868  0.69488675     0.21000
N675        N  0.50468474  0.38817734  0.74297437    -0.33000
C676        C  0.51950165  0.37575299  0.70729724    -0.10600
C677        C  0.51445133  0.41673445  0.67670477    -0.29400
N678        N  0.45198184  0.57960294  0.69492813    -0.46000
C679        C  0.43616303  0.59295640  0.72915819    -0.05300
C680        C  0.44001552  0.55324900  0.76104386    -0.22600
H681        H  0.46633861  0.45109813  0.79297879     0.19200
H682        H  0.48907939  0.51683132  0.64625984     0.18000
H683        H  0.52173207  0.41821914  0.64452563     0.14200
H684        H  0.43031381  0.55291023  0.79192554     0.14100
H685        H  0.50353043  0.36414795  0.77032612     0.32300
H686        H  0.45329821  0.60153859  0.66658551     0.35000
C687        C  0.56863666  0.34347013  0.59794799     0.20600
C688        C  0.58422102  0.37338469  0.56731190    -0.39300
C689        C  0.58173839  0.35316922  0.52624534     0.19600
C690        C  0.56523271  0.30651004  0.51688373     0.22200
C691        C  0.54996693  0.27646015  0.54747993    -0.39800
C692        C  0.55219547  0.29701632  0.58822927     0.21000
N693        N  0.56580125  0.35595154  0.63866909    -0.33000
C694        C  0.54653079  0.31844480  0.65480153    -0.10600
C695        C  0.53851176  0.27969243  0.62420125    -0.29400
N696        N  0.56655882  0.29506989  0.47596089    -0.46000
C697        C  0.58418905  0.33435846  0.45884155    -0.05300
C698        C  0.59399011  0.37177359  0.48916521    -0.22600
H699        H  0.59691501  0.41007506  0.57478342     0.19200
H700        H  0.53686170  0.24030677  0.53994845     0.18000
H701        H  0.52411354  0.24420256  0.62697187     0.14200
H702        H  0.60874342  0.40658263  0.48491290     0.14100
H703        H  0.57540382  0.38946842  0.65427720     0.32300
H704        H  0.55660300  0.26155873  0.46079055     0.35000
C705        C  0.89701013  0.79955689  0.24234502     0.20600
C706        C  0.87105373  0.82997791  0.24459089    -0.39300
C707        C  0.85233047  0.81512137  0.27747537     0.19600
C708        C  0.85879464  0.77291962  0.30561740     0.22200
C709        C  0.88485054  0.74276423  0.30352872    -0.39800
C710        C  0.90369809  0.75789656  0.27084686     0.21000
N711        N  0.91850426  0.80587425  0.21430961    -0.33000
C712        C  0.93928021  0.76814578  0.22493847    -0.10600
C713        C  0.93067484  0.73752649  0.26034294    -0.29400
N714        N  0.83732277  0.76671640  0.33375405    -0.46000
C715        C  0.81720055  0.80620299  0.32432674    -0.05300
C716        C  0.82580679  0.83664488  0.28875740    -0.22600
H717        H  0.86589791  0.86295485  0.22253223     0.19200
H718        H  0.89010846  0.71009767  0.32579029     0.18000
H719        H  0.94261338  0.70533993  0.27680204     0.14200
H720        H  0.81420033  0.86964319  0.27272180     0.14100
H721        H  0.91921689  0.83459826  0.18958851     0.32300
H722        H  0.83645484  0.73762893  0.35821190     0.35000
C723        C  0.01908881  0.65833601  0.24143512     0.20600
C724        C  0.04555314  0.63750482  0.25746715    -0.39300
C725        C  0.04794148  0.57912364  0.25916396     0.19600
C726        C  0.02555567  0.54463732  0.24589825     0.22200
C727        C  0.99908448  0.56544496  0.23064170    -0.39800
C728        C  0.99684874  0.62346264  0.22883834     0.21000
N729        N  0.01195758  0.71183825  0.23410722    -0.33000
C730        C  0.98495474  0.71128547  0.21607475    -0.10600
C731        C  0.97488318  0.65626586  0.21326960    -0.29400
N732        N  0.03422896  0.49148205  0.24529150    -0.46000
C733        C  0.06240233  0.49155012  0.25801031    -0.05300
C734        C  0.07166924  0.54540992  0.26783954    -0.22600
H735        H  0.06340022  0.66466219  0.26618788     0.19200
H736        H  0.98197904  0.53837743  0.21912220     0.18000
H737        H  0.95417330  0.64134578  0.20192693     0.14200
H738        H  0.09352101  0.55868518  0.27591317     0.14100
H739        H  0.02502064  0.74612331  0.24121938     0.32300
H740        H  0.02231662  0.45759045  0.23394988     0.35000
C741        C  0.99880410  0.89873339  0.22834916     0.20600
C742        C  0.99951793  0.95158529  0.24691858    -0.39300
C743        C  0.02355704  0.98511586  0.23660255     0.19600
C744        C  0.04500099  0.96751808  0.20937019     0.22200
C745        C  0.04440731  0.91446333  0.19106847    -0.39800
C746        C  0.02052725  0.88072256  0.20186607     0.21000
N747        N  0.97797788  0.85973487  0.23253236    -0.33000
C748        C  0.98614798  0.81611136  0.20820747    -0.10600
C749        C  0.01308678  0.82773511  0.18932840    -0.29400
N750        N  0.06508612  0.00763766  0.20375109    -0.46000
C751        C  0.05657768  0.05096575  0.22788173    -0.05300
C752        C  0.03079725  0.03837873  0.24903183    -0.22600
H753        H  0.98249473  0.96567954  0.26767492     0.19200
H754        H  0.06119449  0.90062888  0.16981397     0.18000
H755        H  0.02506344  0.80141640  0.16806677     0.14200
H756        H  0.01877892  0.06487865  0.27010066     0.14100
H757        H  0.95930012  0.86354500  0.25084636     0.32300
H758        H  0.08354695  0.00558149  0.18474505     0.35000
C759        C  0.95644189  0.77438606  0.08792400     0.20600
C760        C  0.95909553  0.79850409  0.04812719    -0.39300
C761        C  0.94417103  0.77138703  0.01588475     0.19600
C762        C  0.92747708  0.72407142  0.02246439     0.22200
C763        C  0.92448171  0.70030611  0.06268485    -0.39800
C764        C  0.93983902  0.72731146  0.09505262     0.21000
N765        N  0.96835686  0.79302397  0.12357861    -0.33000
C766        C  0.96002190  0.75702535  0.15442171    -0.10600
C767        C  0.94146591  0.71617739  0.13743333    -0.29400
N768        N  0.91463490  0.70784276  0.98640196    -0.46000
C769        C  0.92322180  0.74565588  0.95706345    -0.05300
C770        C  0.94172033  0.78551917  0.97442095    -0.22600
H771        H  0.97174705  0.83596185  0.04269420     0.19200
H772        H  0.91114243  0.66381876  0.06839747     0.18000
H773        H  0.92941178  0.68414606  0.15376398     0.14200
H774        H  0.95125154  0.82147518  0.95900838     0.14100
H775        H  0.98053206  0.82954843  0.12593224     0.32300
H776        H  0.90011610  0.67471441  0.98238934     0.35000
loop_ 
_geom_bond_atom_site_label_1 
_geom_bond_atom_site_label_2 
_geom_bond_distance 
_geom_bond_site_symmetry_2 
_ccdc_geom_bond_type 
C1          C712   1.525       .  S
C1          C730   1.543       .  S
C1          C748   1.540       .  S
C1          C766   1.540       .  S
C2          C643   1.525       .  S
C2          C658   1.530       .  S
C2          C676   1.532       .  S
C2          C694   1.533       .  S
Zr3           O4   2.439       .  S
Zr3           O5   2.454       .  S
Zr3           O6   2.454       .  S
Zr3           O9   2.456       .  S
Zr3          O11   2.389       .  S
Zr3          O12   2.381       .  S
Zr3          O13   2.415       .  S
Zr3          O14   2.406       .  S
O4           H60   0.990       .  S
O4           H68   0.991       .  S
O5           C25   1.287       .  A
O6           C27   1.289       .  A
O7          Zr17   2.407       .  S
O7           C26   1.280       .  A
O8          Zr16   2.434       .  S
O8           C27   1.285       .  A
O9           C26   1.288       .  A
O10         Zr18   2.403       .  S
O10          C25   1.278       .  A
O11         Zr16   2.398       .  S
O11         Zr18   2.376       .  S
O12         Zr17   2.382       .  S
O12         Zr18   2.376       .  S
O12          H47   0.965       .  S
O13         Zr16   2.402       .  S
O13         Zr33   2.386       .  S
O13          H50   0.965       .  S
O14         Zr17   2.388       .  S
O14         Zr33   2.397       .  S
Zr15         O40   2.442       .  S
Zr15         O34   2.428       .  S
Zr15         O42   2.444       .  S
Zr15         O30   2.428       .  S
Zr15         O21   2.390       .  S
Zr15         O22   2.409       .  S
Zr15         O23   2.384       .  S
Zr15         O24   2.380       .  S
Zr16         O35   2.438       .  S
Zr16         O28   2.436       .  S
Zr16         O29   2.435       .  S
Zr16         O22   2.405       .  S
Zr16         O23   2.391       .  S
Zr17         O19   2.436       .  S
Zr17         O41   2.436       .  S
Zr17         O43   2.405       .  S
Zr17         O21   2.386       .  S
Zr17         O24   2.385       .  S
Zr18         O44   2.436       .  S
Zr18         O45   2.436       .  S
Zr18         O20   2.436       .  S
Zr18         O21   2.392       .  S
Zr18         O22   2.382       .  S
O19          H56   0.990       .  S
O20          H51   0.990       .  S
O20          H65   0.990       .  S
O22          H48   0.961       .  S
O23         Zr33   2.372       .  S
O24         Zr33   2.380       .  S
O24          H49   0.970       .  S
C25         C604   1.472       .  S
C26         C550   1.469       .  S
C27         C586   1.479       .  S
O28          H64   0.990       .  S
O29          C31   1.284       .  A
O30          C31   1.282       .  A
C31         C622   1.466       .  S
O32         Zr33   2.438       .  S
O32          H61   0.991       .  S
Zr33         O36   2.438       .  S
Zr33         O37   2.438       .  S
Zr33         O38   2.410       .  S
O34          C39   1.282       .  A
O35          H52   0.990       .  S
O35          H67   0.990       .  S
O36          H53   0.990       .  S
O37          H57   0.990       .  S
O37          H66   0.990       .  S
O38          C39   1.279       .  A
C39         C568   1.460       .  S
O40          H59   0.991       .  S
O40          H63   0.990       .  S
O41          H55   0.990       .  S
O41          H62   0.990       .  S
O42          C46   1.285       .  A
O43          C46   1.279       .  A
O44          H54   0.991       .  S
O45          H58   0.990       .  S
C46         C697   1.469       .  S
C69         C514   1.544       .  S
C69         C535   1.535       .  S
C69         C589   1.542       .  S
C69         C640   1.529       .  S
Zr70         O71   2.442       .  S
Zr70         O72   2.464       .  S
Zr70         O73   2.443       .  S
Zr70         O76   2.433       .  S
Zr70         O78   2.387       .  S
Zr70         O79   2.381       .  S
Zr70         O80   2.414       .  S
Zr70         O81   2.410       .  S
O71         H127   0.990       .  S
O71         H135   0.990       .  S
O72          C92   1.288       .  A
O73          C94   1.284       .  A
O74         Zr84   2.409       .  S
O74          C93   1.278       .  A
O75         Zr83   2.445       .  S
O75          C94   1.286       .  A
O76          C93   1.281       .  A
O77         Zr85   2.402       .  S
O77          C92   1.278       .  A
O78         Zr83   2.400       .  S
O78         Zr85   2.377       .  S
O79         Zr84   2.382       .  S
O79         Zr85   2.374       .  S
O79         H114   0.963       .  S
O80         Zr83   2.403       .  S
O80        Zr100   2.398       .  S
O80         H117   0.969       .  S
O81         Zr84   2.390       .  S
O81        Zr100   2.402       .  S
Zr82        O107   2.445       .  S
Zr82        O101   2.415       .  S
Zr82        O109   2.454       .  S
Zr82         O97   2.422       .  S
Zr82         O88   2.390       .  S
Zr82         O89   2.404       .  S
Zr82         O90   2.386       .  S
Zr82         O91   2.379       .  S
Zr83        O102   2.436       .  S
Zr83         O95   2.435       .  S
Zr83         O96   2.446       .  S
Zr83         O89   2.401       .  S
Zr83         O90   2.391       .  S
Zr84         O86   2.437       .  S
Zr84        O108   2.438       .  S
Zr84        O110   2.405       .  S
Zr84         O88   2.388       .  S
Zr84         O91   2.377       .  S
Zr85        O111   2.435       .  S
Zr85        O112   2.436       .  S
Zr85         O87   2.437       .  S
Zr85         O88   2.392       .  S
Zr85         O89   2.384       .  S
O86         H123   0.990       .  S
O87         H118   0.990       .  S
O87         H132   0.990       .  S
O89         H115   0.962       .  S
O90        Zr100   2.373       .  S
O91        Zr100   2.377       .  S
O91         H116   0.964       .  S
C92         C517   1.476   1_565  S
C93         C463   1.457   1_565  S
C94         C499   1.475       .  S
O95         H131   0.990       .  S
O96          C98   1.287       .  A
O97          C98   1.283       .  A
C98         C532   1.473       .  S
O99        Zr100   2.439       .  S
O99         H128   0.991       .  S
Zr100       O103   2.438       .  S
Zr100       O104   2.439       .  S
Zr100       O105   2.431       .  S
O101        C106   1.282       .  A
O102        H119   0.990       .  S
O102        H134   0.990       .  S
O103        H120   0.990       .  S
O104        H124   0.990       .  S
O104        H133   0.990       .  S
O105        C106   1.283       .  A
C106        C478   1.466       .  S
O107        H126   0.990       .  S
O107        H130   0.990       .  S
O108        H122   0.990       .  S
O108        H129   0.990       .  S
O109        C113   1.287       .  A
O110        C113   1.280       .  A
O111        H121   0.990       .  S
O112        H125   0.990       .  S
C113        C769   1.474       .  S
C136        C496   1.538       .  S
C136        C607   1.528       .  S
C136        C625   1.531       .  S
C136        C715   1.528       .  S
C137        C424   1.527       .  S
C137        C442   1.527       .  S
C137        C553   1.526       .  S
C137        C571   1.527       .  S
C138        C391   1.533       .  S
C138        C409   1.534       .  S
C138        C460   1.532       .  S
C138        C481   1.536       .  S
Zr139       O140   2.444       .  S
Zr139       O141   2.465       .  S
Zr139       O142   2.439       .  S
Zr139       O145   2.452       .  S
Zr139       O147   2.388       .  S
Zr139       O148   2.380       .  S
Zr139       O149   2.426       .  S
Zr139       O150   2.410       .  S
O140        H196   0.991       .  S
O140        H204   0.990       .  S
O141        C161   1.287       .  A
O142        C163   1.283       .  A
O143       Zr153   2.409       .  S
O143        C162   1.280       .  A
O144       Zr152   2.433       .  S
O144        C163   1.284       .  A
O145        C162   1.286       .  A
O146       Zr154   2.387       .  S
O146        C161   1.276       .  A
O147       Zr152   2.398       .  S
O147       Zr154   2.379       .  S
O148       Zr153   2.380       .  S
O148       Zr154   2.385       .  S
O148        H183   0.961       .  S
O149       Zr152   2.407       .  S
O149       Zr169   2.407       .  S
O149        H186   0.960       .  S
O150       Zr153   2.378       .  S
O150       Zr169   2.399       .  S
Zr151       O176   2.438       .  S
Zr151       O170   2.417       .  S
Zr151       O178   2.461       .  S
Zr151       O166   2.441       .  S
Zr151       O157   2.393       .  S
Zr151       O158   2.405       .  S
Zr151       O159   2.386       .  S
Zr151       O160   2.382       .  S
Zr152       O171   2.436       .  S
Zr152       O164   2.435       .  S
Zr152       O165   2.434       .  S
Zr152       O158   2.399       .  S
Zr152       O159   2.394       .  S
Zr153       O155   2.436       .  S
Zr153       O177   2.436       .  S
Zr153       O179   2.393       .  S
Zr153       O157   2.389       .  S
Zr153       O160   2.381       .  S
Zr154       O180   2.435       .  S
Zr154       O181   2.435       .  S
Zr154       O156   2.438       .  S
Zr154       O157   2.385       .  S
Zr154       O158   2.381       .  S
O155        H192   0.990       .  S
O156        H187   0.990       .  S
O156        H201   0.990       .  S
O158        H184   0.967       .  S
O159       Zr169   2.375       .  S
O160       Zr169   2.372       .  S
O160        H185   0.959       .  S
C161        C352   1.471       .  S
C162        C733   1.471       .  S
C163        C334   1.475       .  S
O164        H200   0.990       .  S
O165        C167   1.285       .  A
O166        C167   1.285       .  A
C167        C373   1.474       .  S
O168       Zr169   2.439       .  S
O168        H197   0.990       .  S
Zr169       O172   2.436       .  S
Zr169       O173   2.441       .  S
Zr169       O174   2.448       .  S
O170        C175   1.281       .  A
O171        H188   0.990       .  S
O171        H203   0.990       .  S
O172        H189   0.990       .  S
O173        H193   0.989       .  S
O173        H202   0.990       .  S
O174        C175   1.287       .  A
C175        C751   1.475       .  S
O176        H195   0.990       .  S
O176        H199   0.990       .  S
O177        H191   0.990       .  S
O177        H198   0.990       .  S
O178        C182   1.289       .  A
O179        C182   1.278       .  A
O180        H190   0.990       .  S
O181        H194   0.990       .  S
C182        C406   1.475       .  S
C205        C298   1.535       .  S
C205        C316   1.536       .  S
C205        C337   1.542       .  S
C205        C388   1.526       .  S
Zr206       O207   2.442       .  S
Zr206       O208   2.457       .  S
Zr206       O209   2.464       .  S
Zr206       O212   2.459       .  S
Zr206       O214   2.391       .  S
Zr206       O215   2.387       .  S
Zr206       O216   2.415       .  S
Zr206       O217   2.411       .  S
O207        H263   0.990       .  S
O207        H271   0.991       .  S
O208        C228   1.287       .  A
O209        C230   1.288       .  A
O210       Zr220   2.400       .  S
O210        C229   1.279       .  A
O211       Zr219   2.429       .  S
O211        C230   1.283       .  A
O212        C229   1.288       .  A
O213       Zr221   2.399       .  S
O213        C228   1.278       .  A
O214       Zr219   2.400       .  S
O214       Zr221   2.385       .  S
O215       Zr220   2.389       .  S
O215       Zr221   2.379       .  S
O215        H250   0.959       .  S
O216       Zr219   2.403       .  S
O216       Zr236   2.393       .  S
O216        H253   0.965       .  S
O217       Zr220   2.388       .  S
O217       Zr236   2.393       .  S
Zr218       O243   2.447       .  S
Zr218       O237   2.433       .  S
Zr218       O245   2.429       .  S
Zr218       O233   2.405       .  S
Zr218       O224   2.395       .  S
Zr218       O225   2.400       .  S
Zr218       O226   2.376       .  S
Zr218       O227   2.379       .  S
Zr219       O238   2.436       .  S
Zr219       O231   2.435       .  S
Zr219       O232   2.448       .  S
Zr219       O225   2.394       .  S
Zr219       O226   2.382       .  S
Zr220       O222   2.435       .  S
Zr220       O244   2.436       .  S
Zr220       O246   2.418       .  S
Zr220       O224   2.387       .  S
Zr220       O227   2.380       .  S
Zr221       O247   2.439       .  S
Zr221       O248   2.435       .  S
Zr221       O223   2.437       .  S
Zr221       O224   2.389       .  S
Zr221       O225   2.385       .  S
O222        H259   0.990       .  S
O223        H254   0.990       .  S
O223        H268   0.989       .  S
O225        H251   0.961       .  S
O226       Zr236   2.371       .  S
O227       Zr236   2.370       .  S
O227        H252   0.966       .  S
C228        C301   1.472       .  S
C229        C679   1.475       .  S
C230        C283   1.482       .  S
O231        H267   0.990       .  S
O232        C234   1.288       .  A
O233        C234   1.280       .  A
C234        C319   1.466   1_565  S
O235       Zr236   2.437       .  S
O235        H264   0.990       .  S
Zr236       O239   2.435       .  S
Zr236       O240   2.440       .  S
Zr236       O241   2.424       .  S
O237        C242   1.284       .  A
O238        H255   0.990       .  S
O238        H270   0.990       .  S
O239        H256   0.990       .  S
O240        H260   0.989       .  S
O240        H269   0.990       .  S
O241        C242   1.283       .  A
C242        C661   1.472   1_565  S
O243        H262   0.990       .  S
O243        H266   0.991       .  S
O244        H258   0.989       .  S
O244        H265   0.991       .  S
O245        C249   1.283       .  A
O246        C249   1.281       .  A
O247        H257   0.989       .  S
O248        H261   0.990       .  S
C249        C445   1.456       .  S
C272        C280   1.539       .  S
C272        C355   1.528       .  S
C272        C370   1.531       .  S
C272        C427   1.526       .  S
C273        C278   1.381       .  A
C273        C274   1.409       .  A
C273        N279   1.346       .  A
C274        C275   1.409   1_554  A
C274        H285   1.082       .  S
C275        C284   1.387       .  A
C275        C276   1.384       .  A
C276        C277   1.403   1_556  A
C276        N282   1.342       .  A
C277        C278   1.401       .  A
C277        H286   1.082   1_554  S
C278        C281   1.376       .  A
N279        C280   1.362       .  A
N279        H289   1.045       .  S
C280        C281   1.402       .  A
C281        H287   1.081       .  S
N282        C283   1.356       .  A
N282        H290   1.045       .  S
C283        C284   1.400       .  A
C284        H288   1.082       .  S
C291        C296   1.379       .  A
C291        C292   1.401       .  A
C291        N297   1.342       .  A
C292        C293   1.402       .  A
C292        H303   1.082       .  S
C293        C302   1.373       .  A
C293        C294   1.385       .  A
C294        C295   1.404       .  A
C294        N300   1.346       .  A
C295        C296   1.404       .  A
C295        H304   1.082       .  S
C296        C299   1.374       .  A
N297        C298   1.360       .  A
N297        H307   1.042       .  S
C298        C299   1.407       .  A
C299        H305   1.081       .  S
N300        C301   1.356       .  A
N300        H308   1.045       .  S
C301        C302   1.397       .  A
C302        H306   1.083       .  S
C309        C314   1.381       .  A
C309        C310   1.402       .  A
C309        N315   1.342       .  A
C310        C311   1.403       .  A
C310        H321   1.083       .  S
C311        C320   1.374       .  A
C311        C312   1.385       .  A
C312        C313   1.399       .  A
C312        N318   1.343       .  A
C313        C314   1.399       .  A
C313        H322   1.082       .  S
C314        C317   1.371       .  A
N315        C316   1.361       .  A
N315        H325   1.045       .  S
C316        C317   1.401       .  A
C317        H323   1.081       .  S
N318        C319   1.353       .  A
N318        H326   1.045       .  S
C319        C320   1.397       .  A
C320        H324   1.083       .  S
C327        C332   1.384       .  A
C327        C328   1.402       .  A
C327        N333   1.344       .  A
C328        C329   1.402       .  A
C328        H339   1.082       .  S
C329        C338   1.372       .  A
C329        C330   1.379       .  A
C330        C331   1.406       .  A
C330        N336   1.347       .  A
C331        C332   1.406       .  A
C331        H340   1.082       .  S
C332        C335   1.379       .  A
N333        C334   1.355       .  A
N333        H343   1.045       .  S
C334        C335   1.398       .  A
C335        H341   1.082       .  S
N336        C337   1.362       .  A
N336        H344   1.041       .  S
C337        C338   1.406       .  A
C338        H342   1.081       .  S
C345        C350   1.384       .  A
C345        C346   1.395       .  A
C345        N351   1.332       .  A
C346        C347   1.392       .  A
C346        H357   1.083       .  S
C347        C356   1.369       .  A
C347        C348   1.381       .  A
C348        C349   1.412       .  A
C348        N354   1.345       .  A
C349        C350   1.409       .  A
C349        H358   1.082       .  S
C350        C353   1.391       .  A
N351        C352   1.353       .  A
N351        H361   1.045       .  S
C352        C353   1.400       .  A
C353        H359   1.082       .  S
N354        C355   1.363       .  A
N354        H362   1.045       .  S
C355        C356   1.397       .  A
C356        H360   1.081       .  S
C363        C368   1.382       .  A
C363        C364   1.404       .  A
C363        N369   1.342       .  A
C364        C365   1.403       .  A
C364        H375   1.082       .  S
C365        C374   1.379   1_565  A
C365        C366   1.384       .  A
C366        C367   1.404       .  A
C366        N372   1.344   1_565  A
C367        C368   1.403       .  A
C367        H376   1.082       .  S
C368        C371   1.377       .  A
N369        C370   1.361       .  A
N369        H379   1.043       .  S
C370        C371   1.400       .  A
C371        H377   1.082       .  S
N372        C373   1.356       .  A
N372        H380   1.045       .  S
C373        C374   1.396       .  A
C374        H378   1.082       .  S
C381        C386   1.383       .  A
C381        C382   1.407       .  A
C381        N387   1.348       .  A
C382        C383   1.407       .  A
C382        H393   1.082       .  S
C383        C392   1.378       .  A
C383        C384   1.381       .  A
C384        C385   1.398       .  A
C384        N390   1.339       .  A
C385        C386   1.398       .  A
C385        H394   1.083       .  S
C386        C389   1.368       .  A
N387        C388   1.361       .  A
N387        H397   1.044       .  S
C388        C389   1.398       .  A
C389        H395   1.083       .  S
N390        C391   1.359       .  A
N390        H398   1.044       .  S
C391        C392   1.405       .  A
C392        H396   1.082       .  S
C399        C404   1.384   1_556  A
C399        C400   1.408       .  A
C399        N405   1.352   1_556  A
C400        C401   1.410       .  A
C400        H411   1.082       .  S
C401        C410   1.380       .  A
C401        C402   1.383       .  A
C402        C403   1.397       .  A
C402        N408   1.341       .  A
C403        C404   1.398   1_556  A
C403        H412   1.083       .  S
C404        C407   1.365       .  A
N405        C406   1.358       .  A
N405        H415   1.045       .  S
C406        C407   1.395       .  A
C407        H413   1.083       .  S
N408        C409   1.358       .  A
N408        H416   1.044       .  S
C409        C410   1.404       .  A
C410        H414   1.082       .  S
C417        C422   1.382       .  A
C417        C418   1.403       .  A
C417        N423   1.341       .  A
C418        C419   1.402       .  A
C418        H429   1.082       .  S
C419        C428   1.375       .  A
C419        C420   1.383       .  A
C420        C421   1.403       .  A
C420        N426   1.342       .  A
C421        C422   1.401       .  A
C421        H430   1.082       .  S
C422        C425   1.375       .  A
N423        C424   1.360       .  A
N423        H433   1.043       .  S
C424        C425   1.400       .  A
C425        H431   1.082       .  S
N426        C427   1.360       .  A
N426        H434   1.043       .  S
C427        C428   1.400       .  A
C428        H432   1.082       .  S
C435        C440   1.382       .  A
C435        C436   1.401       .  A
C435        N441   1.342       .  A
C436        C437   1.401       .  A
C436        H447   1.082       .  S
C437        C446   1.375       .  A
C437        C438   1.386       .  A
C438        C439   1.401       .  A
C438        N444   1.342       .  A
C439        C440   1.400       .  A
C439        H448   1.082       .  S
C440        C443   1.372       .  A
N441        C442   1.360       .  A
N441        H451   1.044       .  S
C442        C443   1.399       .  A
C443        H449   1.083       .  S
N444        C445   1.353       .  A
N444        H452   1.045       .  S
C445        C446   1.391       .  A
C446        H450   1.083       .  S
C453        C458   1.380       .  A
C453        C454   1.407       .  A
C453        N459   1.345   1_655  A
C454        C455   1.406       .  A
C454        H465   1.082   1_655  S
C455        C464   1.382       .  A
C455        C456   1.386       .  A
C456        C457   1.395       .  A
C456        N462   1.336       .  A
C457        C458   1.394       .  A
C457        H466   1.083       .  S
C458        C461   1.365       .  A
N459        C460   1.364       .  A
N459        H469   1.041       .  S
C460        C461   1.399   1_455  A
C461        H467   1.080       .  S
N462        C463   1.350       .  A
N462        H470   1.045       .  S
C463        C464   1.395       .  A
C464        H468   1.082       .  S
C471        C476   1.384       .  A
C471        C472   1.403   1_655  A
C471        N477   1.343       .  A
C472        C473   1.403       .  A
C472        H483   1.082       .  S
C473        C482   1.375       .  A
C473        C474   1.380   1_455  A
C474        C475   1.400       .  A
C474        N480   1.339       .  A
C475        C476   1.398       .  A
C475        H484   1.082       .  S
C476        C479   1.372       .  A
N477        C478   1.356       .  A
N477        H487   1.045       .  S
C478        C479   1.393       .  A
C479        H485   1.083       .  S
N480        C481   1.360   1_655  A
N480        H488   1.041       .  S
C481        C482   1.406       .  A
C482        H486   1.081       .  S
C489        C494   1.381       .  A
C489        C490   1.409       .  A
C489        N495   1.347       .  A
C490        C491   1.408       .  A
C490        H501   1.082       .  S
C491        C500   1.385       .  A
C491        C492   1.384       .  A
C492        C493   1.404       .  A
C492        N498   1.344       .  A
C493        C494   1.403       .  A
C493        H502   1.082       .  S
C494        C497   1.378       .  A
N495        C496   1.361       .  A
N495        H505   1.045       .  S
C496        C497   1.403       .  A
C497        H503   1.082       .  S
N498        C499   1.355       .  A
N498        H506   1.045       .  S
C499        C500   1.397       .  A
C500        H504   1.082       .  S
C507        C512   1.378       .  A
C507        C508   1.411       .  A
C507        N513   1.346       .  A
C508        C509   1.409       .  A
C508        H519   1.082       .  S
C509        C518   1.388       .  A
C509        C510   1.384       .  A
C510        C511   1.401       .  A
C510        N516   1.338       .  A
C511        C512   1.398       .  A
C511        H520   1.083       .  S
C512        C515   1.373       .  A
N513        C514   1.367       .  A
N513        H523   1.043       .  S
C514        C515   1.402       .  A
C515        H521   1.078       .  S
N516        C517   1.355       .  A
N516        H524   1.045   1_545  S
C517        C518   1.400       .  A
C518        H522   1.082       .  S
C525        C530   1.384       .  A
C525        C526   1.406       .  A
C525        N531   1.346       .  A
C526        C527   1.405       .  A
C526        H537   1.082       .  S
C527        C536   1.378       .  A
C527        C528   1.382       .  A
C528        C529   1.400       .  A
C528        N534   1.341       .  A
C529        C530   1.401       .  A
C529        H538   1.082       .  S
C530        C533   1.374       .  A
N531        C532   1.357       .  A
N531        H541   1.045       .  S
C532        C533   1.395       .  A
C533        H539   1.083       .  S
N534        C535   1.358       .  A
N534        H542   1.045       .  S
C535        C536   1.406       .  A
C536        H540   1.082       .  S
C543        C548   1.385   1_545  A
C543        C544   1.399       .  A
C543        N549   1.339       .  A
C544        C545   1.397   1_545  A
C544        H555   1.083       .  S
C545        C554   1.369       .  A
C545        C546   1.382       .  A
C546        C547   1.408       .  A
C546        N552   1.347       .  A
C547        C548   1.408       .  A
C547        H556   1.082       .  S
C548        C551   1.386   1_565  A
N549        C550   1.354       .  A
N549        H559   1.045       .  S
C550        C551   1.398       .  A
C551        H557   1.082       .  S
N552        C553   1.361       .  A
N552        H560   1.044       .  S
C553        C554   1.398       .  A
C554        H558   1.083       .  S
C561        C566   1.385       .  A
C561        C562   1.399       .  A
C561        N567   1.341       .  A
C562        C563   1.400       .  A
C562        H573   1.083       .  S
C563        C572   1.370       .  A
C563        C564   1.382       .  A
C564        C565   1.401       .  A
C564        N570   1.342       .  A
C565        C566   1.401       .  A
C565        H574   1.082       .  S
C566        C569   1.374       .  A
N567        C568   1.353       .  A
N567        H577   1.045       .  S
C568        C569   1.393       .  A
C569        H575   1.083       .  S
N570        C571   1.358       .  A
N570        H578   1.044       .  S
C571        C572   1.404       .  A
C572        H576   1.080       .  S
C579        C584   1.384       .  A
C579        C580   1.405       .  A
C579        N585   1.344       .  A
C580        C581   1.404   1_554  A
C580        H591   1.082       .  S
C581        C590   1.379       .  A
C581        C582   1.379       .  A
C582        C583   1.407       .  A
C582        N588   1.344       .  A
C583        C584   1.405   1_556  A
C583        H592   1.082       .  S
C584        C587   1.382       .  A
N585        C586   1.358       .  A
N585        H595   1.045       .  S
C586        C587   1.398       .  A
C587        H593   1.082       .  S
N588        C589   1.362       .  A
N588        H596   1.041       .  S
C589        C590   1.406       .  A
C590        H594   1.080       .  S
C597        C602   1.384       .  A
C597        C598   1.406   1_545  A
C597        N603   1.348       .  A
C598        C599   1.406       .  A
C598        H609   1.082       .  S
C599        C608   1.380       .  A
C599        C600   1.382       .  A
C600        C601   1.401   1_565  A
C600        N606   1.341       .  A
C601        C602   1.402       .  A
C601        H610   1.083       .  S
C602        C605   1.373       .  A
N603        C604   1.357       .  A
N603        H613   1.045       .  S
C604        C605   1.396       .  A
C605        H611   1.083       .  S
N606        C607   1.358       .  A
N606        H614   1.045       .  S
C607        C608   1.404       .  A
C608        H612   1.081       .  S
C615        C620   1.385       .  A
C615        C616   1.401       .  A
C615        N621   1.339       .  A
C616        C617   1.400       .  A
C616        H627   1.082       .  S
C617        C626   1.375       .  A
C617        C618   1.381       .  A
C618        C619   1.406       .  A
C618        N624   1.342       .  A
C619        C620   1.404       .  A
C619        H628   1.082       .  S
C620        C623   1.382       .  A
N621        C622   1.354       .  A
N621        H631   1.045       .  S
C622        C623   1.395       .  A
C623        H629   1.082       .  S
N624        C625   1.361       .  A
N624        H632   1.045       .  S
C625        C626   1.402       .  A
C626        H630   1.080       .  S
C633        C638   1.383       .  A
C633        C634   1.396       .  A
C633        N639   1.339       .  A
C634        C635   1.396       .  A
C634        H645   1.083       .  S
C635        C644   1.365       .  A
C635        C636   1.383       .  A
C636        C637   1.409       .  A
C636        N642   1.351       .  A
C637        C638   1.410       .  A
C637        H646   1.082       .  S
C638        C641   1.381       .  A
N639        C640   1.357       .  A
N639        H649   1.043       .  S
C640        C641   1.405       .  A
C641        H647   1.082       .  S
N642        C643   1.361       .  A
N642        H650   1.044       .  S
C643        C644   1.398       .  A
C644        H648   1.083       .  S
C651        C656   1.383       .  A
C651        C652   1.401       .  A
C651        N657   1.341       .  A
C652        C653   1.400       .  A
C652        H663   1.083       .  S
C653        C662   1.374       .  A
C653        C654   1.384       .  A
C654        C655   1.404       .  A
C654        N660   1.345       .  A
C655        C656   1.404       .  A
C655        H664   1.082       .  S
C656        C659   1.376       .  A
N657        C658   1.360       .  A
N657        H667   1.044       .  S
C658        C659   1.400       .  A
C659        H665   1.082       .  S
N660        C661   1.357       .  A
N660        H668   1.045       .  S
C661        C662   1.395       .  A
C662        H666   1.083       .  S
C669        C674   1.380       .  A
C669        C670   1.412       .  A
C669        N675   1.349       .  A
C670        C671   1.412       .  A
C670        H681   1.082       .  S
C671        C680   1.391       .  A
C671        C672   1.384       .  A
C672        C673   1.396       .  A
C672        N678   1.335       .  A
C673        C674   1.394       .  A
C673        H682   1.083       .  S
C674        C677   1.366       .  A
N675        C676   1.363       .  A
N675        H685   1.044       .  S
C676        C677   1.401       .  A
C677        H683   1.081       .  S
N678        C679   1.354       .  A
N678        H686   1.045       .  S
C679        C680   1.401       .  A
C680        H684   1.082       .  S
C687        C692   1.381       .  A
C687        C688   1.405       .  A
C687        N693   1.341       .  A
C688        C689   1.404       .  A
C688        H699   1.082       .  S
C689        C698   1.382       .  A
C689        C690   1.384       .  A
C690        C691   1.399       .  A
C690        N696   1.337       .  A
C691        C692   1.396       .  A
C691        H700   1.083       .  S
C692        C695   1.371       .  A
N693        C694   1.360       .  A
N693        H703   1.045       .  S
C694        C695   1.400       .  A
C695        H701   1.080       .  S
N696        C697   1.354       .  A
N696        H704   1.045       .  S
C697        C698   1.397       .  A
C698        H702   1.082       .  S
C705        C710   1.382       .  A
C705        C706   1.402       .  A
C705        N711   1.341       .  A
C706        C707   1.402       .  A
C706        H717   1.082       .  S
C707        C716   1.374       .  A
C707        C708   1.382       .  A
C708        C709   1.403       .  A
C708        N714   1.342       .  A
C709        C710   1.402       .  A
C709        H718   1.082       .  S
C710        C713   1.376       .  A
N711        C712   1.359       .  A
N711        H721   1.045       .  S
C712        C713   1.401       .  A
C713        H719   1.082       .  S
N714        C715   1.358       .  A
N714        H722   1.045       .  S
C715        C716   1.403       .  A
C716        H720   1.082       .  S
C723        C728   1.379   1_455  A
C723        C724   1.409       .  A
C723        N729   1.346       .  A
C724        C725   1.408       .  A
C724        H735   1.082       .  S
C725        C734   1.386       .  A
C725        C726   1.385       .  A
C726        C727   1.400   1_455  A
C726        N732   1.339       .  A
C727        C728   1.399       .  A
C727        H736   1.083       .  S
C728        C731   1.372       .  A
N729        C730   1.365   1_455  A
N729        H739   1.043       .  S
C730        C731   1.402       .  A
C731        H737   1.077       .  S
N732        C733   1.354       .  A
N732        H740   1.045       .  S
C733        C734   1.398       .  A
C734        H738   1.082       .  S
C741        C746   1.381   1_655  A
C741        C742   1.405       .  A
C741        N747   1.343       .  A
C742        C743   1.403   1_655  A
C742        H753   1.082       .  S
C743        C752   1.381   1_565  A
C743        C744   1.384       .  A
C744        C745   1.405       .  A
C744        N750   1.343   1_565  A
C745        C746   1.403       .  A
C745        H754   1.082       .  S
C746        C749   1.378       .  A
N747        C748   1.362       .  A
N747        H757   1.044       .  S
C748        C749   1.403   1_655  A
C749        H755   1.083       .  S
N750        C751   1.358       .  A
N750        H758   1.045       .  S
C751        C752   1.395       .  A
C752        H756   1.082       .  S
C759        C764   1.380       .  A
C759        C760   1.397       .  A
C759        N765   1.339       .  A
C760        C761   1.397       .  A
C760        H771   1.083       .  S
C761        C770   1.368   1_554  A
C761        C762   1.384       .  A
C762        C763   1.408       .  A
C762        N768   1.350   1_554  A
C763        C764   1.409       .  A
C763        H772   1.082       .  S
C764        C767   1.378       .  A
N765        C766   1.361       .  A
N765        H775   1.042       .  S
C766        C767   1.407       .  A
C767        H773   1.079       .  S
N768        C769   1.358       .  A
N768        H776   1.044       .  S
C769        C770   1.394       .  A
C770        H774   1.083       .  S
