geometry optimzed in LAMMPS
_audit_creation_date              2020-11-30 
_audit_creation_method            'lammps2cif' 
_symmetry_space_group_name_H-M    'P1' 
_symmetry_Int_Tables_number       1 
_symmetry_cell_setting            triclinic 
loop_ 
_symmetry_equiv_pos_as_xyz 
  x,y,z 
_cell_length_a                    39.93458457 
_cell_length_b                    40.546125858579614 
_cell_length_c                    39.394689411954786 
_cell_angle_alpha                 89.24134137234671 
_cell_angle_beta                  91.35103326522261 
_cell_angle_gamma                 122.4073436503658 
loop_ 
_atom_site_label 
_atom_site_type_symbol 
_atom_site_fract_x 
_atom_site_fract_y 
_atom_site_fract_z 
_atom_site_charge 
In1        In  0.51040550  0.36654169  0.19940864     1.36900
C2          C  0.50252490  0.31219809  0.24695056     0.78600
O3          O  0.57355289  0.39423616  0.17665798    -0.59800
O4          O  0.52579842  0.34487532  0.15268908    -0.50700
C5          C  0.45436348  0.38029743  0.17486551     0.71300
O6          O  0.44479769  0.34800072  0.18872420    -0.45600
C7          C  0.51789735  0.41718498  0.24471236     0.76000
O8          O  0.53063447  0.34766295  0.24559855    -0.57400
O9          O  0.49979158  0.38092329  0.24873642    -0.47500
O10         O  0.47818501  0.30318061  0.22200197    -0.53900
C11         C  0.56283349  0.36996368  0.15260715     0.86200
O12         O  0.49089786  0.40087844  0.16890557    -0.55800
O13         O  0.53834365  0.42963878  0.21807091    -0.59100
In14       In  0.49940309  0.15289771  0.40034685     1.36900
C15         C  0.49608557  0.20558962  0.35734081     0.78600
O16         O  0.56111786  0.18989923  0.42602930    -0.59800
O17         O  0.51255382  0.18456559  0.45127435    -0.50700
C18         C  0.45120677  0.07807832  0.42245675     0.71300
O19         O  0.48870814  0.09631225  0.42314409    -0.45600
C20         C  0.50115383  0.11547486  0.34817942     0.76000
O21         O  0.52622744  0.20333272  0.36214272    -0.57400
O22         O  0.47201085  0.11808968  0.35482416    -0.47500
O23         O  0.46732376  0.18169339  0.37596485    -0.53900
C24         C  0.55003185  0.20119878  0.45074881     0.86200
O25         O  0.43819405  0.10016427  0.41579675    -0.55800
O26         O  0.53092669  0.13335106  0.36843857    -0.59100
In27       In  0.61839669  0.47763145  0.40360378     1.36900
C28         C  0.67457333  0.49091483  0.35424570     0.78600
O29         O  0.59689661  0.41421988  0.42515300    -0.59800
O30         O  0.62894113  0.46103652  0.45777995    -0.50700
C31         C  0.61597154  0.54036075  0.42724267     0.71300
O32         O  0.63219462  0.54150490  0.39953387    -0.45600
C33         C  0.55393647  0.45791830  0.36644164     0.76000
O34         O  0.68275787  0.51458570  0.37860647    -0.57400
O35         O  0.56130712  0.47634889  0.39343165    -0.47500
O36         O  0.63943435  0.46222618  0.35599600    -0.53900
C37         C  0.61152025  0.42442433  0.45469452     0.86200
O38         O  0.60776398  0.51046335  0.44446048    -0.55800
O39         O  0.57411115  0.44304512  0.36220202    -0.59100
In40       In  0.82097397  0.47758769  0.19643209     1.36900
C41         C  0.77221052  0.48540390  0.24165470     0.78600
O42         O  0.79241408  0.41474339  0.17367575    -0.59800
O43         O  0.78505120  0.45555404  0.14685948    -0.50700
C44         C  0.89311070  0.52559923  0.16866312     0.71300
O45         O  0.86941085  0.53695745  0.17362007    -0.45600
C46         C  0.86101907  0.47874316  0.24961305     0.76000
O47         O  0.78788548  0.50805270  0.21619511    -0.57400
O48         O  0.83821481  0.44730086  0.23331089    -0.47500
O49         O  0.77919396  0.45857896  0.24120907    -0.53900
C50         C  0.77727442  0.42073385  0.14764063     0.86200
O51         O  0.87785880  0.48972478  0.17459362    -0.55800
O52         O  0.86432454  0.50920411  0.23743128    -0.59100
In53       In  0.62073323  0.15821419  0.19621365     1.36900
C54         C  0.67174296  0.20832810  0.24719516     0.78600
O55         O  0.63672679  0.19670197  0.14870811    -0.59800
O56         O  0.58707891  0.18727902  0.17472602    -0.50700
C57         C  0.61270620  0.08911477  0.17609712     0.71300
O58         O  0.59954960  0.10690898  0.15980501    -0.45600
C59         C  0.55994013  0.11089337  0.23272788     0.76000
O60         O  0.63451069  0.19185800  0.24608843    -0.57400
O61         O  0.55541332  0.12181293  0.20377145    -0.47500
O62         O  0.68421739  0.20131632  0.22035277    -0.53900
C63         C  0.60924787  0.20378474  0.14966145     0.86200
O64         O  0.63794003  0.11106226  0.19841449    -0.55800
O65         O  0.59529311  0.12554435  0.24240493    -0.59100
In66       In  0.81765800  0.36595753  0.41385411     1.36900
C67         C  0.76770037  0.30957897  0.36589184     0.78600
O68         O  0.78516904  0.39355758  0.43705817    -0.59800
O69         O  0.78281251  0.34685323  0.46277298    -0.50700
C70         C  0.89162711  0.38324791  0.43582016     0.71300
O71         O  0.87647363  0.40263053  0.44279248    -0.45600
C72         C  0.85919394  0.42405425  0.37262800     0.76000
O73         O  0.77756033  0.30104223  0.39402902    -0.57400
O74         O  0.85393225  0.39075431  0.36946930    -0.47500
O75         O  0.78104420  0.34561292  0.36372345    -0.53900
C76         C  0.77167718  0.37093859  0.46217548     0.86200
O77         O  0.86599451  0.35074973  0.42244283    -0.55800
O78         O  0.84058487  0.42717907  0.39664121    -0.59100
C79         C  0.57876763  0.23290407  0.47692816    -0.01400
C80         C  0.60812644  0.23400498  0.12502741    -0.01400
C81         C  0.61210218  0.39739893  0.48357935    -0.01400
C82         C  0.59081582  0.36811489  0.12666601    -0.01400
C83         C  0.74100608  0.36746749  0.48795971    -0.01400
C84         C  0.74636990  0.38880369  0.12238677    -0.01400
In85       In  0.14159835  0.50516366  0.40211177     1.36900
C86         C  0.19144341  0.50062799  0.35616711     0.78600
O87         O  0.10182507  0.46724845  0.36100633    -0.59800
O88         O  0.11817734  0.52733902  0.36314788    -0.50700
C89         C  0.06745250  0.46210410  0.42996694     0.71300
O90         O  0.08998213  0.44878139  0.42760211    -0.45600
C91         C  0.19210047  0.56525271  0.44667390     0.76000
O92         O  0.17682129  0.47738074  0.38154699    -0.57400
O93         O  0.18269761  0.52995919  0.44952262    -0.47500
O94         O  0.18264745  0.52627108  0.35705639    -0.53900
C95         C  0.09952009  0.49456037  0.34774982     0.86200
O96         O  0.08513167  0.49797091  0.42238951    -0.55800
O97         O  0.17447323  0.56953276  0.42142218    -0.59100
In98       In  0.35718978  0.52286716  0.19849322     1.36900
C99         C  0.29633125  0.50701206  0.24369275     0.78600
O100        O  0.42328440  0.55652455  0.20915128    -0.59800
O101        O  0.38283111  0.53922115  0.24945549    -0.50700
C102        C  0.37570328  0.46862594  0.18164033     0.71300
O103        O  0.34024646  0.45865094  0.18766040    -0.45600
C104        C  0.36083255  0.56911288  0.14526305     0.76000
O105        O  0.31936920  0.53941549  0.22930460    -0.57400
O106        O  0.37613531  0.58205685  0.17407886    -0.47500
O107        O  0.30208006  0.48103013  0.23295250    -0.53900
C108        C  0.41765176  0.55194316  0.24049511     0.86200
O109        O  0.39915539  0.50502440  0.18228553    -0.55800
O110        O  0.34318027  0.53221957  0.14371494    -0.59100
In111      In  0.34969929  0.83448848  0.39110547     1.36900
C112        C  0.29232805  0.77862451  0.34730813     0.78600
O113        O  0.34859665  0.86843639  0.34816036    -0.59800
O114        O  0.39939142  0.86339507  0.35500813    -0.50700
C115        C  0.37295786  0.90598058  0.41721859     0.71300
O116        O  0.33657795  0.87926631  0.41204540    -0.45600
C117        C  0.35780169  0.78982152  0.43950015     0.76000
O118        O  0.28381928  0.79346299  0.37147605    -0.57400
O119        O  0.37993346  0.80254356  0.41382336    -0.47500
O120        O  0.32868554  0.79014956  0.34799673    -0.53900
C121        C  0.38174358  0.87660936  0.33747326     0.86200
O122        O  0.39614159  0.89395568  0.41369027    -0.55800
O123        O  0.33526633  0.80296121  0.44111995    -0.59100
In124      In  0.13590360  0.61172226  0.19075774     1.36900
C125        C  0.18476223  0.66917717  0.23784135     0.78600
O126        O  0.09817239  0.57996482  0.23390993    -0.59800
O127        O  0.11351214  0.54847213  0.20204219    -0.50700
C128        C  0.06535560  0.60131231  0.16667918     0.71300
O129        O  0.09000804  0.63019840  0.18469231    -0.45600
C130        C  0.18608184  0.61133593  0.14411755     0.76000
O131        O  0.17873495  0.67673326  0.20778487    -0.57400
O132        O  0.17450707  0.58924888  0.16977273    -0.47500
O133        O  0.16691273  0.63293488  0.24318553    -0.53900
C134        C  0.09443792  0.54782681  0.22744583     0.86200
O135        O  0.07968700  0.58183228  0.15751752    -0.55800
O136        O  0.17129890  0.63224575  0.14242064    -0.59100
In137      In  0.46828167  0.83998200  0.19704629     1.36900
C138        C  0.47729898  0.79375317  0.24639972     0.78600
O139        O  0.46469420  0.87246646  0.23963228    -0.59800
O140        O  0.42724859  0.86242767  0.19703856    -0.50700
C141        C  0.52937891  0.91475308  0.17923164     0.71300
O142        O  0.52935031  0.89806858  0.20647509    -0.45600
C143        C  0.41413658  0.78824873  0.14808586     0.76000
O144        O  0.50395117  0.81550801  0.22529445    -0.57400
O145        O  0.40490942  0.79660914  0.17570119    -0.47500
O146        O  0.44637522  0.79446993  0.24113675    -0.53900
C147        C  0.44042773  0.87900906  0.22523687     0.86200
O148        O  0.50270240  0.89083946  0.15869596    -0.55800
O149        O  0.45170183  0.80715884  0.14474882    -0.59100
In150      In  0.47808151  0.64335103  0.41058314     1.36900
C151        C  0.47990204  0.69674415  0.36367046     0.78600
O152        O  0.50619370  0.63609291  0.36708060    -0.59800
O153        O  0.44736798  0.58969873  0.37927019    -0.50700
C154        C  0.53024127  0.62305325  0.43475169     0.71300
O155        O  0.54139984  0.65838812  0.42818194    -0.45600
C156        C  0.42102614  0.63149174  0.45659529     0.76000
O157        O  0.50555132  0.70708775  0.38780871    -0.57400
O158        O  0.41387426  0.60913104  0.43175731    -0.47500
O159        O  0.45336788  0.66089711  0.36603067    -0.53900
C160        C  0.47710103  0.60239771  0.36014233     0.86200
O161        O  0.49284313  0.60098361  0.43434164    -0.55800
O162        O  0.45782342  0.65763731  0.45929238    -0.59100
C163        C  0.38959852  0.63139546  0.47968506    -0.01400
C164        C  0.35691302  0.59335445  0.11691997    -0.01400
C165        C  0.21898094  0.61793785  0.11977164    -0.01400
C166        C  0.22574814  0.59969203  0.46881373    -0.01400
C167        C  0.35038153  0.75562905  0.46297767    -0.01400
C168        C  0.38301856  0.75593858  0.12290815    -0.01400
C169        C  0.38619218  0.77309681  0.08314970    -0.04300
C170        C  0.38460164  0.75030049  0.05743722    -0.01400
C171        C  0.35697891  0.74324786  0.02984126     0.03600
C172        C  0.37034511  0.77180895  0.00598137    -0.04300
C173        C  0.39024484  0.80920582  0.02559005    -0.01400
C174        C  0.39528146  0.80910220  0.06453714     0.03600
C175        C  0.42383837  0.75660642  0.05363074     0.38200
C176        C  0.40543788  0.84552913  0.00764101     0.38200
C177        C  0.41553737  0.84530584  0.08283302     0.36700
C178        C  0.31905604  0.73701534  0.03871546     0.36700
N179        N  0.43339335  0.87466722  0.09716850    -0.38200
N180        N  0.28983427  0.73463560  0.04552129    -0.38200
N181        N  0.41790309  0.87479649  0.99328075    -0.37600
N182        N  0.45508394  0.76129711  0.05335538    -0.37600
C183        C  0.23948047  0.64294247  0.45158659    -0.04300
C184        C  0.26178761  0.65883305  0.42139646    -0.01400
C185        C  0.29429693  0.69937915  0.42082868     0.03600
C186        C  0.30418036  0.72357764  0.45071973    -0.04300
C187        C  0.26939595  0.71269727  0.46855797    -0.01400
C188        C  0.23546781  0.67296188  0.46621013     0.03600
C189        C  0.24178310  0.64164228  0.38948205     0.38200
C190        C  0.26387797  0.74401202  0.47758026     0.38200
C191        C  0.19866527  0.67025348  0.45731230     0.36700
C192        C  0.31905797  0.71429725  0.39131478     0.36700
N193        N  0.17544743  0.68000326  0.95934549    -0.38200
N194        N  0.33866508  0.72566186  0.36754617    -0.38200
N195        N  0.27039138  0.77219136  0.98784731    -0.37600
N196        N  0.22523547  0.62906463  0.36380577    -0.37600
C197        C  0.25504233  0.66417985  0.12977927    -0.04300
C198        C  0.26514469  0.70139574  0.11518713    -0.01400
C199        C  0.30569226  0.73620847  0.11826088     0.03600
C200        C  0.33675351  0.73513740  0.13587946    -0.04300
C201        C  0.32039641  0.70625811  0.16188933    -0.01400
C202        C  0.27977951  0.67247034  0.15961936     0.03600
C203        C  0.23461223  0.70743392  0.10296658     0.38200
C204        C  0.34231583  0.71557859  0.19364112     0.38200
C205        C  0.26176592  0.64937731  0.18979678     0.36700
C206        C  0.31389113  0.77445382  0.10886062     0.36700
N207        N  0.24746012  0.63195151  0.21437773    -0.38200
N208        N  0.32011462  0.80497248  0.10159175    -0.38200
N209        N  0.35873679  0.72382587  0.21968587    -0.37600
N210        N  0.21277269  0.71649577  0.09429804    -0.37600
C211        C  0.19536748  0.59174472  0.00596474    -0.04300
C212        C  0.18148939  0.61464970  0.02003315    -0.01400
C213        C  0.18628791  0.62392577  0.05662131     0.03600
C214        C  0.20010686  0.60578496  0.07993865    -0.04300
C215        C  0.18602929  0.56765991  0.06593172    -0.01400
C216        C  0.18827578  0.56207011  0.02985041     0.03600
C217        C  0.14693067  0.60981415  0.00240098     0.38200
C218        C  0.16344592  0.53341952  0.08684972     0.38200
C219        C  0.18215562  0.52541091  0.01841972     0.36700
C220        C  0.16203437  0.63697329  0.07010231     0.36700
N221        N  0.17764428  0.49592627  0.01031379    -0.38200
N222        N  0.14046313  0.64546704  0.07971772    -0.38200
N223        N  0.14297736  0.50507207  0.10189142    -0.37600
N224        N  0.12899400  0.60057268  0.49464045    -0.37600
C225        C  0.30991959  0.58107879  0.12209782    -0.04300
C226        C  0.27026827  0.54902455  0.13571276    -0.01400
C227        C  0.23637492  0.55653803  0.14059298     0.03600
C228        C  0.24052475  0.59312160  0.12637301    -0.04300
C229        C  0.27309323  0.60822326  0.10731882    -0.01400
C230        C  0.30594438  0.61228506  0.12544854     0.03600
C231        C  0.26313470  0.51107245  0.14375178     0.38200
C232        C  0.26313707  0.58705328  0.07537361     0.38200
C233        C  0.31790756  0.62834510  0.15961740     0.36700
C234        C  0.20139704  0.52870328  0.15847783     0.36700
N235        N  0.32891718  0.63788489  0.18729953    -0.38200
N236        N  0.17360522  0.50589963  0.17308830    -0.38200
N237        N  0.25577726  0.56559310  0.05320976    -0.37600
N238        N  0.25657285  0.48019534  0.14997849    -0.37600
C239        C  0.38309626  0.64190033  0.11922187    -0.04300
C240        C  0.37427595  0.65987729  0.09293807    -0.01400
C241        C  0.36820595  0.68961360  0.10052749     0.03600
C242        C  0.39081311  0.71950700  0.12332892    -0.04300
C243        C  0.41543919  0.71003071  0.14417320    -0.01400
C244        C  0.40859246  0.67024513  0.14443905     0.03600
C245        C  0.35129979  0.63641694  0.06537689     0.38200
C246        C  0.45048848  0.73986331  0.16166231     0.38200
C247        C  0.43158092  0.66137866  0.16722031     0.36700
C248        C  0.33253518  0.68416227  0.08826719     0.36700
N249        N  0.45079465  0.65508335  0.18529202    -0.38200
N250        N  0.30270727  0.67691542  0.07799988    -0.38200
N251        N  0.48056326  0.76227988  0.17441357    -0.37600
N252        N  0.32953423  0.61515547  0.04549515    -0.37600
C253        C  0.37436104  0.73373021  0.45789588    -0.04300
C254        C  0.35146030  0.69304472  0.45464851    -0.01400
C255        C  0.36966298  0.67375669  0.44548782     0.03600
C256        C  0.39566039  0.67445407  0.47048124    -0.04300
C257        C  0.42520462  0.71612666  0.47582602    -0.01400
C258        C  0.41457328  0.74590958  0.46841724     0.03600
C259        C  0.32136288  0.67469206  0.47937991     0.38200
C260        C  0.46636306  0.72964883  0.48143390     0.38200
C261        C  0.44333551  0.78705294  0.47311311     0.36700
C262        C  0.38227724  0.67871017  0.41063591     0.36700
N263        N  0.46617077  0.82009040  0.47698057    -0.38200
N264        N  0.39246726  0.68329660  0.38278858    -0.38200
N265        N  0.50001685  0.74215697  0.48421669    -0.37600
N266        N  0.29768115  0.66405668  0.50005381    -0.37600
C267        C  0.37264081  0.58664523  0.07983113    -0.04300
C268        C  0.34812348  0.56270525  0.05219322    -0.01400
C269        C  0.35762989  0.57542114  0.01656938     0.03600
C270        C  0.38791277  0.61560244  0.00656423    -0.04300
C271        C  0.41882978  0.63074384  0.03223234    -0.01400
C272        C  0.41161073  0.61575447  0.06732415     0.03600
C273        C  0.31075962  0.52742362  0.05989095     0.38200
C274        C  0.45933773  0.65256461  0.02138436     0.38200
C275        C  0.44484698  0.62929511  0.09078011     0.36700
C276        C  0.33905116  0.54491743  0.99141862     0.36700
N277        N  0.47164621  0.63957156  0.10919264    -0.38200
N278        N  0.34170128  0.51977655  0.48168574    -0.38200
N279        N  0.49213450  0.66731487  0.01368058    -0.37600
N280        N  0.28053463  0.49925709  0.06553902    -0.37600
C281        C  0.34173370  0.60352414  0.47238551    -0.04300
C282        C  0.32003462  0.59212342  0.44061627    -0.01400
C283        C  0.28237008  0.59019114  0.43726320     0.03600
C284        C  0.26206141  0.59192302  0.46691230    -0.04300
C285        C  0.27685571  0.58357696  0.49629135    -0.01400
C286        C  0.31826701  0.60302638  0.49920118     0.03600
C287        C  0.33744562  0.58727219  0.41079232     0.38200
C288        C  0.27638571  0.64541601  0.01285514     0.38200
C289        C  0.35262026  0.67129056  0.00264107     0.36700
C290        C  0.26622756  0.58509094  0.40344651     0.36700
N291        N  0.37771892  0.69201677  0.02064420    -0.38200
N292        N  0.25761855  0.58144468  0.37493233    -0.38200
N293        N  0.26298736  0.66033416  0.02658032    -0.37600
N294        N  0.35011487  0.58319054  0.38617953    -0.37600
C295        C  0.48087863  0.76918284  0.27519235    -0.04300
C296        C  0.45281235  0.72846941  0.27776835    -0.01400
C297        C  0.45181342  0.70594152  0.30651023     0.03600
C298        C  0.48038312  0.72269237  0.33377469    -0.04300
C299        C  0.50950797  0.76348103  0.33073017    -0.01400
C300        C  0.50990870  0.78610211  0.30188120     0.03600
C301        C  0.42614418  0.70832038  0.24941324     0.38200
C302        C  0.53853955  0.78294276  0.35789757     0.38200
C303        C  0.54044963  0.82722761  0.29979838     0.36700
C304        C  0.42011277  0.66499014  0.30759147     0.36700
N305        N  0.56508872  0.86001663  0.29801121    -0.38200
N306        N  0.39446897  0.63248969  0.30836740    -0.38200
N307        N  0.56151903  0.79864605  0.37975740    -0.37600
N308        N  0.40495154  0.69052827  0.22713756    -0.37600
C309        C  0.42755418  0.90239097  0.24202636    -0.04300
C310        C  0.38679862  0.88709930  0.24400748    -0.01400
C311        C  0.37094248  0.88451970  0.27612157     0.03600
C312        C  0.39675533  0.89686638  0.30495945    -0.04300
C313        C  0.43777777  0.92279055  0.30052303    -0.01400
C314        C  0.45284194  0.92757788  0.26781867     0.03600
C315        C  0.36136937  0.87048183  0.21418271     0.38200
C316        C  0.46406718  0.94252658  0.32932245     0.38200
C317        C  0.49445693  0.95426557  0.26090627     0.36700
C318        C  0.32841920  0.86544775  0.27961765     0.36700
N319        N  0.52738610  0.97564831  0.25427284    -0.38200
N320        N  0.29447826  0.85033099  0.28237298    -0.38200
N321        N  0.48505151  0.95836723  0.35233546    -0.35200
N322        N  0.34118912  0.85759584  0.19022080    -0.37600
C323        C  0.26347096  0.75146192  0.31902189    -0.04300
C324        C  0.22220772  0.72478759  0.32423548    -0.01400
C325        C  0.19662726  0.69862610  0.29788181     0.03600
C326        C  0.21091215  0.69960967  0.26493595    -0.04300
C327        C  0.25100057  0.72856148  0.25881032    -0.01400
C328        C  0.27732214  0.75248337  0.28563904     0.03600
C329        C  0.20587438  0.72331959  0.35703499     0.38200
C330        C  0.26515670  0.73467382  0.22439937     0.38200
C331        C  0.31909335  0.77785996  0.27831886     0.36700
C332        C  0.15475442  0.67184769  0.30413022     0.36700
N333        N  0.35245673  0.79735200  0.27219796    -0.38200
N334        N  0.12120305  0.65067234  0.30877444    -0.38200
N335        N  0.27611621  0.74057481  0.19677299    -0.37600
N336        N  0.19257674  0.72216921  0.38312644    -0.37600
C337        C  0.44703121  0.55601520  0.26548454    -0.04300
C338        C  0.48411691  0.59083558  0.26888695    -0.01400
C339        C  0.50016223  0.60303324  0.30175679     0.03600
C340        C  0.47661854  0.58140081  0.32984341    -0.04300
C341        C  0.44594242  0.54199917  0.32513484    -0.01400
C342        C  0.43261742  0.52866727  0.29211579     0.03600
C343        C  0.50382630  0.61489168  0.23953151     0.38200
C344        C  0.42522525  0.51669868  0.35363319     0.38200
C345        C  0.40046594  0.48861317  0.28565632     0.36700
C346        C  0.53845965  0.63899213  0.30646988     0.36700
N347        N  0.37489064  0.45689368  0.27983619    -0.38200
N348        N  0.56916162  0.66749965  0.31034197    -0.38200
N349        N  0.40797890  0.49629473  0.37608156    -0.37600
N350        N  0.52005109  0.63405255  0.21616972    -0.37600
C351        C  0.07286471  0.51419667  0.25065848    -0.04300
C352        C  0.08463546  0.48723898  0.25397613    -0.01400
C353        C  0.08927296  0.47583153  0.28669510     0.03600
C354        C  0.07942072  0.48986848  0.31498820    -0.04300
C355        C  0.05634975  0.50630394  0.31018955    -0.01400
C356        C  0.05202771  0.51756303  0.27741596     0.03600
C357        C  0.09223278  0.47189940  0.22422177     0.38200
C358        C  0.03958971  0.51386877  0.33907108     0.38200
C359        C  0.02940468  0.53564809  0.27163376     0.36700
C360        C  0.10779551  0.45349724  0.29111987     0.36700
N361        N  0.01129676  0.55000296  0.26683013    -0.38200
N362        N  0.12259955  0.43569020  0.29452579    -0.38200
N363        N  0.02624126  0.51978044  0.36222117    -0.37600
N364        N  0.09676530  0.45817727  0.20060292    -0.37600
C365        C  0.26646501  0.50154115  0.27142695    -0.04300
C366        C  0.25646520  0.47583113  0.29979309    -0.01400
C367        C  0.23186756  0.47461374  0.32682950     0.03600
C368        C  0.21649100  0.49933571  0.32683012    -0.04300
C369        C  0.22481419  0.52328033  0.29729431    -0.01400
C370        C  0.24911974  0.52426801  0.27061024     0.03600
C371        C  0.27220660  0.45093719  0.30176556     0.38200
C372        C  0.20750507  0.54677729  0.29316313     0.38200
C373        C  0.25516629  0.54828338  0.24116650     0.36700
C374        C  0.22227406  0.44739121  0.35458629     0.36700
N375        N  0.26005360  0.56739643  0.21755535    -0.38200
N376        N  0.21441633  0.42534518  0.37657662    -0.38200
N377        N  0.19372849  0.56550594  0.28958930    -0.37600
N378        N  0.28463934  0.43090510  0.30340842    -0.37600
C379        C  0.77047456  0.38167821  0.01487385    -0.04300
C380        C  0.78282920  0.42023401  0.02663496    -0.01400
C381        C  0.78243766  0.42728536  0.06249376     0.03600
C382        C  0.76740117  0.39519246  0.08528790    -0.04300
C383        C  0.78468561  0.37397057  0.07459578    -0.01400
C384        C  0.78283182  0.36392030  0.03903641     0.03600
C385        C  0.80183094  0.45256419  0.00312008     0.38200
C386        C  0.81704168  0.37862184  0.09594121     0.38200
C387        C  0.80993161  0.35348511  0.02708152     0.36700
C388        C  0.80752471  0.46657928  0.07568620     0.36700
N389        N  0.83219816  0.34581580  0.01764976    -0.38200
N390        N  0.82813932  0.49813855  0.08570451    -0.38200
N391        N  0.84311460  0.38282719  0.11290246    -0.37600
N392        N  0.81378347  0.48207901  0.49297226    -0.37600
C393        C  0.63801161  0.39629633  0.13534685    -0.04300
C394        C  0.66793246  0.42253871  0.11282489    -0.01400
C395        C  0.69917656  0.41699392  0.10448219     0.03600
C396        C  0.70968484  0.39542451  0.12691337    -0.04300
C397        C  0.69078111  0.38978763  0.15993724    -0.01400
C398        C  0.65648811  0.39214287  0.16390604     0.03600
C399        C  0.68165880  0.46347760  0.11736142     0.38200
C400        C  0.70895998  0.38947610  0.19183677     0.38200
C401        C  0.65227718  0.40840239  0.19498924     0.36700
C402        C  0.72245324  0.44139125  0.07671194     0.36700
N403        N  0.64993244  0.42231566  0.21957534    -0.38200
N404        N  0.73706993  0.46264464  0.05408228    -0.38200
N405        N  0.72032577  0.38874328  0.21888089    -0.37600
N406        N  0.69378947  0.49632749  0.12106016    -0.37600
C407        C  0.65889548  0.41356276  0.49159082    -0.04300
C408        C  0.66733895  0.39619219  0.51889072    -0.01400
C409        C  0.69302685  0.38250917  0.51555288     0.03600
C410        C  0.71675758  0.38918991  0.48673484    -0.04300
C411        C  0.71687682  0.41621108  0.46305684    -0.01400
C412        C  0.68935626  0.42906955  0.46620822     0.03600
C413        C  0.64084959  0.37921025  0.54634671     0.38200
C414        C  0.74495646  0.43222676  0.43586011     0.38200
C415        C  0.69886698  0.46415991  0.44826725     0.36700
C416        C  0.69151915  0.35698280  0.54183421     0.36700
N417        N  0.70905134  0.49360695  0.43504182    -0.38200
N418        N  0.69551467  0.32932768  0.05538913    -0.38200
N419        N  0.76684387  0.44653034  0.41371872    -0.37600
N420        N  0.62873576  0.35760257  0.06887694    -0.37600
C421        C  0.59504428  0.39645635  0.01932095    -0.04300
C422        C  0.61697552  0.42739527  0.04312329    -0.01400
C423        C  0.60587108  0.42098990  0.07798155     0.03600
C424        C  0.58203988  0.38221565  0.09037051    -0.04300
C425        C  0.54959873  0.36133432  0.06747695    -0.01400
C426        C  0.55609474  0.36843506  0.03139630     0.03600
C427        C  0.65017574  0.46486756  0.03275776     0.38200
C428        C  0.50978915  0.33751710  0.08043726     0.38200
C429        C  0.52223946  0.35903863  0.01016801     0.36700
C430        C  0.60645736  0.45158323  0.09697781     0.36700
N431        N  0.48951890  0.34416109  0.48872709    -0.38200
N432        N  0.60612152  0.47570716  0.11205659    -0.38200
N433        N  0.47771657  0.31866117  0.09023119    -0.37600
N434        N  0.67700217  0.49491185  0.02470873    -0.37600
C435        C  0.72870159  0.34347708  0.13314732    -0.04300
C436        C  0.70878996  0.32628842  0.16301099    -0.01400
C437        C  0.67014595  0.29121021  0.16108313     0.03600
C438        C  0.65359618  0.27062365  0.12886518    -0.04300
C439        C  0.68498053  0.27900401  0.10655022    -0.01400
C440        C  0.72395183  0.31286318  0.11224890     0.03600
C441        C  0.73425231  0.33312663  0.19248283     0.38200
C442        C  0.68366740  0.24922238  0.08600868     0.38200
C443        C  0.75427863  0.30353529  0.11695948     0.36700
C444        C  0.65440486  0.27331685  0.19355336     0.36700
N445        N  0.77728596  0.29473507  0.12109422    -0.38200
N446        N  0.64496661  0.26171104  0.22086377    -0.38200
N447        N  0.68798388  0.22762001  0.07076291    -0.37600
N448        N  0.75482664  0.33871559  0.21578231    -0.37600
C449        C  0.58136353  0.25156853  0.13613174    -0.04300
C450        C  0.58582073  0.27261234  0.16570651    -0.01400
C451        C  0.58642800  0.30861933  0.16320493     0.03600
C452        C  0.58125948  0.32354386  0.13058991    -0.04300
C453        C  0.56431516  0.29297446  0.10528136    -0.01400
C454        C  0.55547676  0.25556540  0.11406191     0.03600
C455        C  0.57089452  0.24928100  0.19633506     0.38200
C456        C  0.54788740  0.29245114  0.07231306     0.38200
C457        C  0.51343222  0.22898311  0.12053918     0.36700
C458        C  0.58658822  0.32527560  0.19529936     0.36700
N459        N  0.47995301  0.20820097  0.12572350    -0.38200
N460        N  0.58710947  0.33614352  0.22236932    -0.38200
N461        N  0.53316789  0.28709064  0.04559222    -0.37600
N462        N  0.55798580  0.23044401  0.22054410    -0.37600
C463        C  0.57421129  0.27023504  0.47473193    -0.04300
C464        C  0.60573412  0.30261890  0.48973426    -0.01400
C465        C  0.61868595  0.33857995  0.47459379     0.03600
C466        C  0.59293637  0.35147907  0.47401067    -0.04300
C467        C  0.55547269  0.32037407  0.45970787    -0.01400
C468        C  0.54677257  0.27976824  0.45847402     0.03600
C469        C  0.61084005  0.29806681  0.52508461     0.38200
C470        C  0.53270473  0.33085134  0.43832984     0.38200
C471        C  0.50984109  0.25058532  0.44273778     0.36700
C472        C  0.63486456  0.34544994  0.44127924     0.36700
N473        N  0.47902444  0.22871880  0.43077486    -0.38200
N474        N  0.64562752  0.35259887  0.41376139    -0.38200
N475        N  0.51504019  0.33914852  0.42028489    -0.37600
N476        N  0.61213996  0.29065253  0.55330104    -0.37600
C477        C  0.57386170  0.21012152  0.01639068    -0.04300
C478        C  0.54623474  0.20725309  0.04018103    -0.01400
C479        C  0.55208778  0.20109304  0.07512181     0.03600
C480        C  0.59093754  0.21323582  0.08729189    -0.04300
C481        C  0.60293379  0.19367050  0.06530497    -0.01400
C482        C  0.59205178  0.19026725  0.02937609     0.03600
C483        C  0.50815766  0.19985425  0.02904159     0.38200
C484        C  0.61089091  0.16555426  0.07996267     0.38200
C485        C  0.58246032  0.15546558  0.01091868     0.36700
C486        C  0.51968697  0.16755088  0.09215480     0.36700
N487        N  0.57618326  0.13491993  0.49508337    -0.38200
N488        N  0.49428585  0.14022352  0.10553813    -0.38200
N489        N  0.61713656  0.14266542  0.09082391    -0.37600
N490        N  0.47676730  0.19248115  0.02120117    -0.37600
C491        C  0.62591154  0.25108762  0.46965487    -0.04300
C492        C  0.65409402  0.25267876  0.49357722    -0.01400
C493        C  0.69020432  0.28916365  0.50202832     0.03600
C494        C  0.70436850  0.32245936  0.48048216    -0.04300
C495        C  0.68454072  0.31160496  0.44735608    -0.01400
C496        C  0.64572764  0.27667935  0.44236920     0.03600
C497        C  0.65946840  0.22014440  0.49088800     0.38200
C498        C  0.70371022  0.33471184  0.41740582     0.38200
C499        C  0.62909520  0.26388782  0.40863881     0.36700
C500        C  0.71742341  0.28654362  0.52472108     0.36700
N501        N  0.61724834  0.25205136  0.38155465    -0.38200
N502        N  0.73708299  0.27976505  0.54163333    -0.38200
N503        N  0.71733603  0.35218649  0.39268051    -0.37600
N504        N  0.66540000  0.19535197  0.48785680    -0.37600
C505        C  0.02282461  0.43814087  0.43773227    -0.04300
C506        C  0.00484788  0.45588302  0.45372816    -0.01400
C507        C  0.96272111  0.43735294  0.45470815     0.03600
C508        C  0.93651179  0.39983671  0.43989407    -0.04300
C509        C  0.95453106  0.38087654  0.42595062    -0.01400
C510        C  0.99687985  0.39958912  0.42514966     0.03600
C511        C  0.02985774  0.49353192  0.47001327     0.38200
C512        C  0.92970646  0.34246416  0.41093144     0.38200
C513        C  0.01360647  0.37933686  0.40998222     0.36700
C514        C  0.94681576  0.45814642  0.47049929     0.36700
N515        N  0.02676596  0.36287819  0.39803003    -0.38200
N516        N  0.93426599  0.47493946  0.48291733    -0.38200
N517        N  0.90991448  0.31184368  0.39881494    -0.37600
N518        N  0.04947234  0.52341956  0.48335203    -0.37600
C519        C  0.59497072  0.04477904  0.17243584    -0.04300
C520        C  0.55547880  0.02004895  0.15954854    -0.01400
C521        C  0.53562717  0.97850328  0.16043247     0.03600
C522        C  0.55411036  0.95939918  0.17403839    -0.04300
C523        C  0.59401668  0.98383392  0.18602063    -0.01400
C524        C  0.61419093  0.02580931  0.18509152     0.03600
C525        C  0.53328728  0.03693521  0.14730194     0.38200
C526        C  0.61468941  0.96580489  0.19911039     0.38200
C527        C  0.65507581  0.04938215  0.19689091     0.36700
C528        C  0.49419322  0.95559115  0.15007739     0.36700
N529        N  0.68783583  0.06810146  0.20611164    -0.38200
N530        N  0.46097173  0.93833135  0.14223848    -0.38200
N531        N  0.63136946  0.95150750  0.20943246    -0.37600
N532        N  0.51540474  0.05026433  0.13773733    -0.37600
C533        C  0.69736397  0.23306711  0.27810680    -0.04300
C534        C  0.73835081  0.26247819  0.27552287    -0.01400
C535        C  0.76075514  0.28693559  0.30387786     0.03600
C536        C  0.74409874  0.28103299  0.33658241    -0.04300
C537        C  0.70465660  0.24894408  0.34016127    -0.01400
C538        C  0.68090213  0.22700123  0.31122754     0.03600
C539        C  0.75793043  0.26788462  0.24361163     0.38200
C540        C  0.68916479  0.23693178  0.37399407     0.38200
C541        C  0.63922746  0.19788935  0.31611047     0.36700
C542        C  0.80219345  0.31714698  0.29983266     0.36700
N543        N  0.60583637  0.17511109  0.31994118    -0.38200
N544        N  0.83539929  0.34104585  0.29684244    -0.38200
N545        N  0.67737918  0.22631709  0.40107642    -0.37600
N546        N  0.77377480  0.27209798  0.21821555    -0.37600
C547        C  0.93666929  0.55139835  0.15995220    -0.04300
C548        C  0.96197474  0.58828974  0.17550319    -0.01400
C549        C  0.00412998  0.60643631  0.17564675     0.03600
C550        C  0.02195303  0.58827214  0.15978096    -0.04300
C551        C  0.99640805  0.55420754  0.14009351    -0.01400
C552        C  0.95450560  0.53596683  0.14052369     0.03600
C553        C  0.94466611  0.60697733  0.19258854     0.38200
C554        C  0.01275808  0.53707907  0.11936766     0.38200
C555        C  0.92940310  0.50074773  0.12076616     0.36700
C556        C  0.02876865  0.64354151  0.19285363     0.36700
N557        N  0.90927409  0.47274543  0.10499620    -0.38200
N558        N  0.04815552  0.67327411  0.20650070    -0.38200
N559        N  0.02554992  0.52325628  0.10266685    -0.37600
N560        N  0.93079152  0.62203950  0.20592505    -0.37600
C561        C  0.88229363  0.45485318  0.34753944    -0.04300
C562        C  0.87636998  0.48586044  0.34328621    -0.01400
C563        C  0.87526280  0.49862888  0.31023208     0.03600
C564        C  0.87921826  0.47924866  0.28239897    -0.04300
C565        C  0.89460138  0.45542589  0.28775022    -0.01400
C566        C  0.89923593  0.44586936  0.32102819     0.03600
C567        C  0.86855057  0.50237132  0.37219856     0.38200
C568        C  0.90239075  0.43820264  0.25938953     0.38200
C569        C  0.91757856  0.42367558  0.32776349     0.36700
C570        C  0.86551923  0.52807768  0.30505674     0.36700
N571        N  0.93221096  0.40606261  0.33354284    -0.38200
N572        N  0.85790138  0.55167764  0.30094494    -0.38200
N573        N  0.90805783  0.42385383  0.23690037    -0.37600
N574        N  0.86253764  0.51578596  0.39522205    -0.37600
C575        C  0.59994893  0.56640239  0.43565109    -0.04300
C576        C  0.61619544  0.60461057  0.42217075    -0.01400
C577        C  0.59554848  0.62468423  0.42429075     0.03600
C578        C  0.55730040  0.60664251  0.43908812    -0.04300
C579        C  0.54273259  0.56956738  0.45465863    -0.01400
C580        C  0.56431480  0.55068230  0.45412814     0.03600
C581        C  0.65499331  0.62394512  0.40702151     0.38200
C582        C  0.50432410  0.54940625  0.47059741     0.38200
C583        C  0.54866491  0.51406811  0.47234836     0.36700
C584        C  0.61344679  0.66350230  0.40995795     0.36700
N585        N  0.53652243  0.48511705  0.48718860    -0.38200
N586        N  0.62812449  0.69461466  0.39861114    -0.38200
N587        N  0.47342948  0.53269757  0.48289322    -0.37600
N588        N  0.68622063  0.63953631  0.39535442    -0.37600
C589        C  0.70286934  0.49299594  0.32674449    -0.04300
C590        C  0.72513578  0.52514226  0.30441046    -0.01400
C591        C  0.74741096  0.52315698  0.27684655     0.03600
C592        C  0.74827322  0.48889809  0.27064824    -0.04300
C593        C  0.72734088  0.45774696  0.29437141    -0.01400
C594        C  0.70478259  0.45969440  0.32095301     0.03600
C595        C  0.72422282  0.55999663  0.30906632     0.38200
C596        C  0.72914702  0.42300292  0.29278746     0.38200
C597        C  0.68305271  0.42640203  0.34296424     0.36700
C598        C  0.77072561  0.55723906  0.25574158     0.36700
N599        N  0.66502230  0.39952803  0.36015500    -0.38200
N600        N  0.78967245  0.58465322  0.23911214    -0.38200
N601        N  0.73035920  0.39511246  0.29275703    -0.37600
N602        N  0.72349885  0.58788940  0.31270004    -0.37600
C603        C  0.38829121  0.94920093  0.42273940    -0.04300
C604        C  0.41923821  0.97261472  0.44659324    -0.01400
C605        C  0.43604042  0.01370818  0.44898884     0.03600
C606        C  0.42562319  0.03358485  0.42545650    -0.04300
C607        C  0.39532558  0.01049473  0.40104294    -0.01400
C608        C  0.37597672  0.96885375  0.40049805     0.03600
C609        C  0.43614171  0.95555942  0.46780648     0.38200
C610        C  0.38662299  0.02971046  0.37413020     0.38200
C611        C  0.34574786  0.94666570  0.37465962     0.36700
C612        C  0.46448487  0.03579819  0.47600324     0.36700
N613        N  0.32170730  0.92905367  0.35395969    -0.38200
N614        N  0.48676830  0.05332052  0.49784355    -0.38200
N615        N  0.38005022  0.04487818  0.35223456    -0.37600
N616        N  0.45183881  0.94417254  0.48482282    -0.37600
C617        C  0.50093748  0.09493263  0.31764946    -0.04300
C618        C  0.52360571  0.07776239  0.31707564    -0.01400
C619        C  0.53687882  0.07342018  0.28585060     0.03600
C620        C  0.52763497  0.08709182  0.25611620    -0.04300
C621        C  0.49561889  0.09235945  0.25602493    -0.01400
C622        C  0.48269134  0.09730286  0.28720455     0.03600
C623        C  0.53522503  0.06698249  0.34838605     0.38200
C624        C  0.48090856  0.09945296  0.22447647     0.38200
C625        C  0.45454397  0.10946637  0.28726336     0.36700
C626        C  0.56539998  0.06165453  0.28500762     0.36700
N627        N  0.43213584  0.11924459  0.28691761    -0.38200
N628        N  0.58887555  0.05323853  0.28435467    -0.38200
N629        N  0.46954590  0.10556951  0.19935638    -0.37600
N630        N  0.54440797  0.05805026  0.37322611    -0.37600
C631        C  0.42757376  0.39646124  0.16969863    -0.04300
C632        C  0.39138003  0.38145360  0.18712519    -0.01400
C633        C  0.37355655  0.40396766  0.19030357     0.03600
C634        C  0.39067820  0.44151261  0.17509969    -0.04300
C635        C  0.42503393  0.45476742  0.15528881    -0.01400
C636        C  0.44193226  0.43184903  0.15147351     0.03600
C637        C  0.37163638  0.34234789  0.20111852     0.38200
C638        C  0.44468410  0.49308719  0.13949274     0.38200
C639        C  0.47369445  0.44443650  0.12753305     0.36700
C640        C  0.33935838  0.38961015  0.21161202     0.36700
N641        N  0.49860701  0.45402774  0.10810398    -0.38200
N642        N  0.31232761  0.37828282  0.22899109    -0.38200
N643        N  0.46111529  0.52389859  0.12737602    -0.37600
N644        N  0.35528336  0.31078845  0.21166459    -0.37600
C645        C  0.51436473  0.44086815  0.27088392    -0.04300
C646        C  0.54595504  0.47872981  0.27915617    -0.01400
C647        C  0.55311743  0.48948402  0.31364071     0.03600
C648        C  0.53100876  0.46080791  0.33844657    -0.04300
C649        C  0.49392827  0.42820588  0.32944440    -0.01400
C650        C  0.48411963  0.42019128  0.29490072     0.03600
C651        C  0.57190553  0.50509871  0.25322028     0.38200
C652        C  0.46833323  0.40107223  0.35514397     0.38200
C653        C  0.44541311  0.38765052  0.28429291     0.36700
C654        C  0.58550903  0.52797919  0.32387301     0.36700
N655        N  0.41466336  0.36172565  0.27552977    -0.38200
N656        N  0.61087908  0.55901508  0.33191861    -0.38200
N657        N  0.44770042  0.37910279  0.37546650    -0.37600
N658        N  0.59259961  0.52667470  0.23269882    -0.37600
C659        C  0.49541112  0.23376737  0.33117990    -0.04300
C660        C  0.52959528  0.27139468  0.32597935    -0.01400
C661        C  0.53119202  0.29688380  0.29991635     0.03600
C662        C  0.49919452  0.28483620  0.27617908    -0.04300
C663        C  0.46393460  0.24784005  0.28247233    -0.01400
C664        C  0.46175631  0.22338475  0.31021461     0.03600
C665        C  0.56282287  0.28607930  0.34933377     0.38200
C666        C  0.42898645  0.23516107  0.26131236     0.38200
C667        C  0.42429453  0.18796934  0.31778750     0.36700
C668        C  0.56585095  0.33648419  0.29912171     0.36700
N669        N  0.39423123  0.16007719  0.32439341    -0.38200
N670        N  0.59333970  0.36811202  0.29918279    -0.38200
N671        N  0.40087484  0.22485503  0.24457726    -0.37600
N672        N  0.59000234  0.30004239  0.36751701    -0.37600
In673      In  0.49581520  0.35351946  0.70043716     1.36900
C674        C  0.48920721  0.29506705  0.74353524     0.78600
O675        O  0.51462063  0.34156409  0.64978808    -0.59800
O676        O  0.55940148  0.38988161  0.67701137    -0.50700
C677        C  0.44581962  0.37674745  0.67958701     0.71300
O678        O  0.48295602  0.39959905  0.68320114    -0.45600
C679        C  0.49329726  0.38517088  0.75615380     0.76000
O680        O  0.51714929  0.33051500  0.74322206    -0.57400
O681        O  0.46396260  0.35431804  0.74401136    -0.47500
O682        O  0.46525804  0.28754126  0.71848536    -0.53900
C683        C  0.55114353  0.36879626  0.65086516     0.86200
O684        O  0.43476091  0.34086676  0.68122623    -0.55800
O685        O  0.52506808  0.40095304  0.73910984    -0.59100
In686      In  0.49254055  0.14446675  0.90790911     1.36900
C687        C  0.48182500  0.18850099  0.85685835     0.78600
O688        O  0.51104197  0.17715374  0.95906682    -0.59800
O689        O  0.55638872  0.18853126  0.92586446    -0.50700
C690        C  0.43257980  0.07260212  0.93131269     0.71300
O691        O  0.46872126  0.08458881  0.93197653    -0.45600
C692        C  0.53282036  0.11981201  0.87824217     0.76000
O693        O  0.49257654  0.19902334  0.88731429    -0.57400
O694        O  0.50147732  0.11549041  0.86535069    -0.47500
O695        O  0.47397783  0.15420759  0.85278761    -0.53900
C696        C  0.54824016  0.19657626  0.95402996     0.86200
O697        O  0.42642461  0.09915318  0.92244926    -0.55800
O698        O  0.54290562  0.13580283  0.90685995    -0.59100
In699      In  0.60863233  0.46670938  0.90674428     1.36900
C700        C  0.66399304  0.47844051  0.85834780     0.78600
O701        O  0.59352137  0.40603607  0.92797143    -0.59800
O702        O  0.62646626  0.45482613  0.95955033    -0.50700
C703        C  0.59471361  0.52444284  0.92425445     0.71300
O704        O  0.62039131  0.52956545  0.90302876    -0.45600
C705        C  0.54110986  0.44035947  0.87391803     0.76000
O706        O  0.62975217  0.44799305  0.86086676    -0.57400
O707        O  0.57440747  0.46559064  0.86252845    -0.47500
O708        O  0.67119523  0.50301110  0.88158747    -0.53900
C709        C  0.61038336  0.41807065  0.95666053     0.86200
O710        O  0.58240398  0.49309573  0.94058770    -0.55800
O711        O  0.54220165  0.42498563  0.90157283    -0.59100
In712      In  0.81893397  0.47963181  0.70294689     1.36900
C713        C  0.76982223  0.48462014  0.74870966     0.78600
O714        O  0.78061765  0.45804156  0.65453685    -0.59800
O715        O  0.78464398  0.41514377  0.68139183    -0.50700
C716        C  0.89219175  0.52506120  0.67538595     0.71300
O717        O  0.86859525  0.53702499  0.67830452    -0.45600
C718        C  0.86335063  0.49197392  0.75610674     0.76000
O719        O  0.77935071  0.45948210  0.74878306    -0.57400
O720        O  0.85902455  0.51831291  0.74346437    -0.47500
O721        O  0.78324572  0.50677509  0.72262768    -0.53900
C722        C  0.76972690  0.42224000  0.65565429     0.86200
O723        O  0.87594161  0.48911293  0.68219932    -0.55800
O724        O  0.84490505  0.45892724  0.74100924    -0.59100
In725      In  0.60717122  0.16288697  0.69777186     1.36900
C726        C  0.67441309  0.20656182  0.74038291     0.78600
O727        O  0.62104909  0.19751246  0.64864728    -0.59800
O728        O  0.57093069  0.18802796  0.67373164    -0.50700
C729        C  0.58034877  0.08888238  0.67314015     0.71300
O730        O  0.55910304  0.10096807  0.68357867    -0.45600
C731        C  0.56779232  0.14094609  0.75354846     0.76000
O732        O  0.66362335  0.17300036  0.72937888    -0.57400
O733        O  0.56931290  0.11776374  0.73405929    -0.47500
O734        O  0.65435568  0.21860389  0.72648194    -0.53900
C735        C  0.59377317  0.20474536  0.64914998     0.86200
O736        O  0.61689626  0.11642343  0.67250142    -0.55800
O737        O  0.57962232  0.17416496  0.74116182    -0.59100
In738      In  0.82135665  0.36690557  0.90435899     1.36900
C739        C  0.77561757  0.31144396  0.85396192     0.78600
O740        O  0.78560441  0.34471654  0.95295500    -0.59800
O741        O  0.78403367  0.38937390  0.92747930    -0.50700
C742        C  0.89080666  0.37734477  0.93056018     0.71300
O743        O  0.86724623  0.34904152  0.91151622    -0.45600
C744        C  0.86609386  0.43341862  0.87111519     0.76000
O745        O  0.78622705  0.30333074  0.88181315    -0.57400
O746        O  0.86523004  0.40260668  0.86489801    -0.47500
O747        O  0.78625971  0.34694627  0.85318602    -0.53900
C748        C  0.77244584  0.36712423  0.95288618     0.86200
O749        O  0.87581584  0.39624732  0.93965112    -0.55800
O750        O  0.84250106  0.42968549  0.89375468    -0.59100
C751        C  0.57997518  0.22814685  0.97860814    -0.01400
C752        C  0.59379426  0.23551925  0.62478507    -0.01400
C753        C  0.61363403  0.39217777  0.98491543    -0.01400
C754        C  0.58169844  0.37053921  0.62514074    -0.01400
C755        C  0.74290891  0.36311837  0.98028769    -0.01400
C756        C  0.73796139  0.39165877  0.62957049    -0.01400
In757      In  0.13453451  0.50691250  0.89860362     1.36900
C758        C  0.18124680  0.49548078  0.85520638     0.78600
O759        O  0.11307839  0.53925758  0.86965194    -0.59800
O760        O  0.09291485  0.48118074  0.85456137    -0.50700
C761        C  0.06314058  0.45773333  0.92778693     0.71300
O762        O  0.08686808  0.44693550  0.92099155    -0.45600
C763        C  0.18483690  0.56563450  0.94352627     0.76000
O764        O  0.16207181  0.47181310  0.87915494    -0.57400
O765        O  0.16726434  0.52936444  0.94963766    -0.47500
O766        O  0.17840061  0.52497248  0.85571131    -0.53900
C767        C  0.09148735  0.51111448  0.84966141     0.86200
O768        O  0.07833012  0.49388712  0.92359077    -0.55800
O769        O  0.17541825  0.57209184  0.91452301    -0.59100
In770      In  0.34576305  0.51319069  0.70347750     1.36900
C771        C  0.28716638  0.49768763  0.74986408     0.78600
O772        O  0.41070045  0.53646659  0.69840356    -0.59800
O773        O  0.38862361  0.54255466  0.74514374    -0.50700
C774        C  0.35411548  0.45200845  0.69032325     0.71300
O775        O  0.34686575  0.46970104  0.66753288    -0.45600
C776        C  0.34924444  0.56337763  0.65336519     0.76000
O777        O  0.28000670  0.47888139  0.72230546    -0.57400
O778        O  0.36962483  0.57533487  0.68043523    -0.47500
O779        O  0.32326485  0.52433584  0.75297882    -0.53900
C780        C  0.41725411  0.54582674  0.72918962     0.86200
O781        O  0.34970217  0.46064221  0.71979660    -0.55800
O782        O  0.32810951  0.52639829  0.65218230    -0.59100
In783      In  0.35190072  0.84043538  0.90053768     1.36900
C784        C  0.29728105  0.79335417  0.84936942     0.78600
O785        O  0.38146436  0.88557790  0.86115020    -0.59800
O786        O  0.41436020  0.86444608  0.88543444    -0.50700
C787        C  0.35578329  0.90466101  0.92823188     0.71300
O788        O  0.38140332  0.89602261  0.93372756    -0.45600
C789        C  0.36013813  0.79053822  0.94368703     0.76000
O790        O  0.33400154  0.81630578  0.84584642    -0.57400
O791        O  0.37905988  0.80379221  0.91659300    -0.47500
O792        O  0.28760485  0.79394428  0.87977654    -0.53900
C793        C  0.41334850  0.88629385  0.86277810     0.86200
O794        O  0.32518243  0.87745104  0.91304713    -0.55800
O795        O  0.33907189  0.80455033  0.94920418    -0.59100
In796      In  0.14044536  0.62982614  0.68933953     1.36900
C797        C  0.19119560  0.68738745  0.73616578     0.78600
O798        O  0.11453889  0.57109928  0.71306645    -0.59800
O799        O  0.09995595  0.61079189  0.73182953    -0.50700
C800        C  0.06759036  0.61183175  0.66449958     0.71300
O801        O  0.08228868  0.59135549  0.66040576    -0.45600
C802        C  0.18785308  0.61966224  0.64556154     0.76000
O803        O  0.18285560  0.69572258  0.70711698    -0.57400
O804        O  0.17627737  0.60222254  0.67369429    -0.47500
O805        O  0.17535335  0.65105988  0.73952213    -0.53900
C806        C  0.09467522  0.57737282  0.73372652     0.86200
O807        O  0.09348449  0.64572172  0.67552663    -0.55800
O808        O  0.17287727  0.63990710  0.63918576    -0.59100
In809      In  0.46678313  0.84050879  0.68696066     1.36900
C810        C  0.47672319  0.79561421  0.73500546     0.78600
O811        O  0.49693830  0.87728185  0.73195700    -0.59800
O812        O  0.43538803  0.85632123  0.72286720    -0.50700
C813        C  0.50511502  0.91586625  0.66307423     0.71300
O814        O  0.52178630  0.89630039  0.66403090    -0.45600
C815        C  0.41066481  0.78757535  0.63954072     0.76000
O816        O  0.44494338  0.79371146  0.72697343    -0.57400
O817        O  0.40291232  0.79921887  0.66623800    -0.47500
O818        O  0.50440650  0.81784740  0.71458189    -0.53900
C819        C  0.46628711  0.87577655  0.74174048     0.86200
O820        O  0.46855574  0.89469381  0.66953654    -0.55800
O821        O  0.44799267  0.80536191  0.63542894    -0.59100
In822      In  0.46761187  0.64002789  0.89645992     1.36900
C823        C  0.47488594  0.69854992  0.85347140     0.78600
O824        O  0.43989622  0.59237463  0.85892904    -0.59800
O825        O  0.50056229  0.64031427  0.85318527    -0.50700
C826        C  0.51241231  0.61184140  0.92126819     0.71300
O827        O  0.52599243  0.64835959  0.91905032    -0.45600
C828        C  0.41311389  0.62996917  0.94395574     0.76000
O829        O  0.50142679  0.70498776  0.87585635    -0.57400
O830        O  0.45070476  0.65182679  0.94702773    -0.47500
O831        O  0.44467160  0.66435286  0.85617186    -0.53900
C832        C  0.47164695  0.60854349  0.84185074     0.86200
O833        O  0.47538039  0.59095521  0.91538741    -0.55800
O834        O  0.40267224  0.61036859  0.91673044    -0.59100
C835        C  0.38645255  0.63551264  0.96863867    -0.01400
C836        C  0.34166342  0.58782738  0.62750762    -0.01400
C837        C  0.22227773  0.62275243  0.62466477    -0.01400
C838        C  0.21593693  0.59787110  0.96825107    -0.01400
C839        C  0.35831594  0.75743086  0.96568680    -0.01400
C840        C  0.37733324  0.75404713  0.61597724    -0.01400
C841        C  0.37865530  0.76838596  0.57669326    -0.04300
C842        C  0.37176507  0.74218715  0.55162322    -0.01400
C843        C  0.34477672  0.73817523  0.52537378     0.03600
C844        C  0.35904594  0.76812710  0.50279329    -0.04300
C845        C  0.37947051  0.80483096  0.52218352    -0.01400
C846        C  0.38647126  0.80433406  0.55998130     0.03600
C847        C  0.40718284  0.74206310  0.54585215     0.38200
C848        C  0.38678935  0.83976027  0.50577580     0.38200
C849        C  0.40344679  0.83957890  0.57971672     0.36700
C850        C  0.30713765  0.73228022  0.53549407     0.36700
N851        N  0.41751389  0.86788569  0.59563837    -0.38200
N852        N  0.27725523  0.72784707  0.54348038    -0.38200
N853        N  0.39049800  0.86699104  0.49239235    -0.37600
N854        N  0.43681969  0.74337910  0.54536896    -0.37600
C855        C  0.23645978  0.64238705  0.95190836    -0.04300
C856        C  0.26706466  0.65570713  0.92756474    -0.01400
C857        C  0.30114738  0.69507535  0.92838668     0.03600
C858        C  0.31207833  0.71921825  0.95828177    -0.04300
C859        C  0.27534322  0.71317507  0.97044488    -0.01400
C860        C  0.23777119  0.67551644  0.96632588     0.03600
C861        C  0.26189717  0.63039472  0.89967764     0.38200
C862        C  0.27338584  0.74644843  0.98008662     0.38200
C863        C  0.20235480  0.67670612  0.96312434     0.36700
C864        C  0.30992276  0.71443419  0.89577291     0.36700
N865        N  0.16994760  0.66898683  0.44918361    -0.38200
N866        N  0.31483619  0.72882551  0.86928036    -0.38200
N867        N  0.25909084  0.76876520  0.48476353    -0.37600
N868        N  0.25783048  0.61036486  0.87721815    -0.37600
C869        C  0.25767538  0.66875266  0.63252866    -0.04300
C870        C  0.26370389  0.70414870  0.61730269    -0.01400
C871        C  0.30357378  0.73844372  0.61571654     0.03600
C872        C  0.33532961  0.73837599  0.63238750    -0.04300
C873        C  0.32267951  0.71224757  0.66056948    -0.01400
C874        C  0.28275448  0.68047167  0.66215153     0.03600
C875        C  0.23293575  0.71249287  0.61902685     0.38200
C876        C  0.35019612  0.71610919  0.68714494     0.38200
C877        C  0.26566315  0.67669826  0.69482967     0.36700
C878        C  0.31031136  0.77569780  0.60466312     0.36700
N879        N  0.25496090  0.67594875  0.72197701    -0.38200
N880        N  0.31472527  0.80515593  0.59605538    -0.38200
N881        N  0.37171565  0.71811014  0.70836386    -0.37600
N882        N  0.21041604  0.72186727  0.62211747    -0.37600
C883        C  0.21186795  0.59802829  0.50918158    -0.04300
C884        C  0.19780666  0.62135056  0.52166108    -0.01400
C885        C  0.20227381  0.63270805  0.55740941     0.03600
C886        C  0.20944869  0.61149530  0.58337483    -0.04300
C887        C  0.19419823  0.57332692  0.56947720    -0.01400
C888        C  0.20096668  0.56773223  0.53418730     0.03600
C889        C  0.15997376  0.61054798  0.50608074     0.38200
C890        C  0.15467291  0.54496536  0.58123237     0.38200
C891        C  0.18243307  0.52779711  0.52282158     0.36700
C892        C  0.18407316  0.65384236  0.56628972     0.36700
N893        N  0.16613126  0.49523194  0.51505474    -0.38200
N894        N  0.16649308  0.66866278  0.57031404    -0.38200
N895        N  0.12240482  0.52309345  0.58951239    -0.37600
N896        N  0.11836343  0.60438120  0.98884094    -0.37600
C897        C  0.29671710  0.57369581  0.64101781    -0.04300
C898        C  0.25854070  0.54783221  0.62566304    -0.01400
C899        C  0.22789609  0.55679924  0.62729114     0.03600
C900        C  0.23702962  0.59382016  0.64023072    -0.04300
C901        C  0.26164343  0.60165440  0.66950224    -0.01400
C902        C  0.29294627  0.59419131  0.66902635     0.03600
C903        C  0.24843775  0.51097740  0.61148192     0.38200
C904        C  0.24440910  0.59865147  0.70216584     0.38200
C905        C  0.32026965  0.60692158  0.69779296     0.36700
C906        C  0.18858111  0.52361427  0.63403549     0.36700
N907        N  0.34141528  0.61712094  0.72128494    -0.38200
N908        N  0.15787624  0.49654675  0.64063462    -0.38200
N909        N  0.23050098  0.59498674  0.72849077    -0.37600
N910        N  0.23684158  0.48013248  0.60086855    -0.37600
C911        C  0.35795201  0.63308300  0.62765379    -0.04300
C912        C  0.33656579  0.64219505  0.60470850    -0.01400
C913        C  0.34360659  0.67948719  0.60193074     0.03600
C914        C  0.37713640  0.71361835  0.61672775    -0.04300
C915        C  0.40286463  0.70520223  0.63618819    -0.01400
C916        C  0.39112170  0.66546220  0.64444718     0.03600
C917        C  0.30384242  0.61124607  0.58376470     0.38200
C918        C  0.44292213  0.73560617  0.64540186     0.38200
C919        C  0.41360559  0.65906553  0.67002256     0.36700
C920        C  0.31259621  0.67861331  0.58272248     0.36700
N921        N  0.43220040  0.65520300  0.69081547    -0.38200
N922        N  0.28445065  0.66741777  0.56626252    -0.38200
N923        N  0.47585156  0.75817419  0.65229946    -0.37600
N924        N  0.27769437  0.58815722  0.56710656    -0.37600
C925        C  0.38891518  0.74455428  0.95350278    -0.04300
C926        C  0.38335397  0.72214081  0.92433353    -0.01400
C927        C  0.38621560  0.68852503  0.92704190     0.03600
C928        C  0.40381874  0.68167596  0.95662002    -0.04300
C929        C  0.43074768  0.71858463  0.97330309    -0.01400
C930        C  0.42229047  0.74958857  0.97228394     0.03600
C931        C  0.39310145  0.74223033  0.89201698     0.38200
C932        C  0.46757645  0.72701823  0.98850090     0.38200
C933        C  0.45155758  0.78873967  0.98356484     0.36700
C934        C  0.36828710  0.66027037  0.90003418     0.36700
N935        N  0.47511073  0.82024739  0.99214954    -0.38200
N936        N  0.35249574  0.63708347  0.87892441    -0.38200
N937        N  0.49871036  0.73755220  0.99984954    -0.37600
N938        N  0.40181322  0.75869949  0.86633939    -0.37600
C939        C  0.36140281  0.58850948  0.58973177    -0.04300
C940        C  0.34619784  0.56170329  0.56190461    -0.01400
C941        C  0.36336442  0.57337716  0.52788101     0.03600
C942        C  0.39201510  0.61394547  0.51830786    -0.04300
C943        C  0.41386867  0.63563465  0.54767555    -0.01400
C944        C  0.40133905  0.62011104  0.58175360     0.03600
C945        C  0.32111432  0.52065594  0.56928884     0.38200
C946        C  0.45246454  0.67057192  0.54398091     0.38200
C947        C  0.43211814  0.62924634  0.60679686     0.36700
C948        C  0.35124281  0.54350494  0.50223836     0.36700
N949        N  0.45754028  0.63524868  0.62551813    -0.38200
N950        N  0.32447133  0.51836146  0.97325429    -0.38200
N951        N  0.48436711  0.69785123  0.54379130    -0.37600
N952        N  0.30353379  0.48730563  0.57405145    -0.37600
C953        C  0.33886887  0.61844725  0.96481845    -0.04300
C954        C  0.30757922  0.58549694  0.94678185    -0.01400
C955        C  0.26608814  0.57250025  0.95146540     0.03600
C956        C  0.25449812  0.59433914  0.97175773    -0.04300
C957        C  0.28564602  0.62435767  0.99028008    -0.01400
C958        C  0.32515108  0.63845563  0.98364147     0.03600
C959        C  0.31685032  0.56551722  0.92214380     0.38200
C960        C  0.25934582  0.54240697  0.50292041     0.38200
C961        C  0.33880168  0.63399569  0.52319373     0.36700
C962        C  0.23712141  0.53346727  0.94023880     0.36700
N963        N  0.36040384  0.66214719  0.53798529    -0.38200
N964        N  0.21583911  0.50112704  0.93259243    -0.38200
N965        N  0.24692166  0.50965413  0.50795267    -0.37600
N966        N  0.32291514  0.54890421  0.90198976    -0.37600
C967        C  0.47926833  0.77378700  0.76673077    -0.04300
C968        C  0.44431582  0.74836388  0.78505798    -0.01400
C969        C  0.44290486  0.72148883  0.80919990     0.03600
C970        C  0.47783795  0.72694729  0.82512037    -0.04300
C971        C  0.51435243  0.75763309  0.81123379    -0.01400
C972        C  0.51486720  0.77829978  0.78072686     0.03600
C973        C  0.40968270  0.75120389  0.78169747     0.38200
C974        C  0.55150552  0.76671774  0.82699852     0.38200
C975        C  0.55223182  0.80474831  0.76453624     0.36700
C976        C  0.40484629  0.68568406  0.81320773     0.36700
N977        N  0.58223561  0.82565165  0.75165684    -0.38200
N978        N  0.37417722  0.65675758  0.81316875    -0.38200
N979        N  0.58126015  0.77420746  0.83960847    -0.37600
N980        N  0.38253747  0.75434502  0.78008534    -0.37600
C981        C  0.46625966  0.89425802  0.77363968    -0.04300
C982        C  0.44567573  0.91350748  0.77520681    -0.01400
C983        C  0.43465625  0.91973134  0.80688826     0.03600
C984        C  0.44375343  0.90576216  0.83646054    -0.04300
C985        C  0.47396638  0.89786000  0.83519618    -0.01400
C986        C  0.48424060  0.89045449  0.80358285     0.03600
C987        C  0.43542636  0.92637022  0.74445576     0.38200
C988        C  0.49280487  0.89563813  0.86631372     0.38200
C989        C  0.51070703  0.87630616  0.80247958     0.36700
C990        C  0.41187089  0.93795028  0.80869279     0.36700
N991        N  0.53206019  0.86525968  0.80208399    -0.38200
N992        N  0.39372361  0.95253105  0.80989219    -0.38200
N993        N  0.50815570  0.89452908  0.89121241    -0.35200
N994        N  0.42735427  0.93728838  0.72024341    -0.37600
C995        C  0.26898362  0.76754621  0.82012333    -0.04300
C996        C  0.23387444  0.73089186  0.82654753    -0.01400
C997        C  0.20949323  0.70535041  0.79954602     0.03600
C998        C  0.21741607  0.71637682  0.76469689    -0.04300
C999        C  0.25196404  0.75358468  0.75811043    -0.01400
C1000       C  0.27794607  0.77806765  0.78520010     0.03600
C1001       C  0.22349700  0.71802444  0.86129343     0.38200
C1002       C  0.26231872  0.76605902  0.72321616     0.38200
C1003       C  0.31472523  0.81386864  0.77665607     0.36700
C1004       C  0.17658676  0.66670107  0.80824422     0.36700
N1005       N  0.34436740  0.84208243  0.76973818    -0.38200
N1006       N  0.15105796  0.63564435  0.81561460    -0.38200
N1007       N  0.27086768  0.77626330  0.69543040    -0.37600
N1008       N  0.21503780  0.70754433  0.88898864    -0.37600
C1009       C  0.45456249  0.55823059  0.74677170    -0.04300
C1010       C  0.48055220  0.59867156  0.74880782    -0.01400
C1011       C  0.48907467  0.61636097  0.78081100     0.03600
C1012       C  0.47453198  0.59237693  0.81001887    -0.04300
C1013       C  0.45916290  0.55210545  0.80748653    -0.01400
C1014       C  0.45058678  0.53510143  0.77516445     0.03600
C1015       C  0.49231126  0.62176505  0.71798791     0.38200
C1016       C  0.44991829  0.52821171  0.83777162     0.38200
C1017       C  0.43049756  0.49313192  0.77140578     0.36700
C1018       C  0.50821050  0.65834395  0.78286448     0.36700
N1019       N  0.41448529  0.45959323  0.76859958    -0.38200
N1020       N  0.52348368  0.69190741  0.78364998    -0.38200
N1021       N  0.44261573  0.50933838  0.86204533    -0.37600
N1022       N  0.50224122  0.64039495  0.69347079    -0.37600
C1023       C  0.07028728  0.54950430  0.76036819    -0.04300
C1024       C  0.06257903  0.51137383  0.75986414    -0.01400
C1025       C  0.06231561  0.49362114  0.79076681     0.03600
C1026       C  0.06897368  0.51454232  0.82121858    -0.04300
C1027       C  0.06261323  0.54549239  0.82128901    -0.01400
C1028       C  0.06331623  0.56338083  0.79043653     0.03600
C1029       C  0.05669480  0.49161957  0.72780573     0.38200
C1030       C  0.05850925  0.56061659  0.85303609     0.38200
C1031       C  0.06103614  0.59791458  0.79039506     0.36700
C1032       C  0.05849062  0.45601147  0.79076109     0.36700
N1033       N  0.05958044  0.62566949  0.79045595    -0.38200
N1034       N  0.05521081  0.42586687  0.79055077    -0.38200
N1035       N  0.05518925  0.57258323  0.87839172    -0.37600
N1036       N  0.05141183  0.47585173  0.70212470    -0.37600
C1037       C  0.25612224  0.49112328  0.77591346    -0.04300
C1038       C  0.25442963  0.47563295  0.80890317    -0.01400
C1039       C  0.22700360  0.47275169  0.83357614     0.03600
C1040       C  0.20450886  0.49011183  0.82752050    -0.04300
C1041       C  0.20465615  0.50335463  0.79381783    -0.01400
C1042       C  0.22862009  0.50198187  0.76823652     0.03600
C1043       C  0.28021005  0.46162467  0.81723249     0.38200
C1044       C  0.17842189  0.51666963  0.78467620     0.38200
C1045       C  0.22367109  0.50984821  0.73326443     0.36700
C1046       C  0.22032773  0.44989439  0.86410496     0.36700
N1047       N  0.21916185  0.51437764  0.70491561    -0.38200
N1048       N  0.21391223  0.43027985  0.88776801    -0.38200
N1049       N  0.15747608  0.52731035  0.77745833    -0.37600
N1050       N  0.30086146  0.45049871  0.82398586    -0.37600
C1051       C  0.76668539  0.38527169  0.52346231    -0.04300
C1052       C  0.77889527  0.42374349  0.53516938    -0.01400
C1053       C  0.77735312  0.43049093  0.57088941     0.03600
C1054       C  0.76068593  0.39801727  0.59342743    -0.04300
C1055       C  0.77784492  0.37639414  0.58377837    -0.01400
C1056       C  0.77763765  0.36696181  0.54828672     0.03600
C1057       C  0.79777650  0.45610324  0.51164514     0.38200
C1058       C  0.80880109  0.37994102  0.60638161     0.38200
C1059       C  0.80354938  0.35453430  0.53741655     0.36700
C1060       C  0.80243789  0.46962350  0.58438522     0.36700
N1061       N  0.82444446  0.34475434  0.52880781    -0.38200
N1062       N  0.82325699  0.50108502  0.59454943    -0.38200
N1063       N  0.83371964  0.38311541  0.62434325    -0.37600
N1064       N  0.81828346  0.47872536  0.98469153    -0.37600
C1065       C  0.62882280  0.39922856  0.63506878    -0.04300
C1066       C  0.65967844  0.42526507  0.61299131    -0.01400
C1067       C  0.69203752  0.42038485  0.60715635     0.03600
C1068       C  0.70266940  0.40093123  0.63196802    -0.04300
C1069       C  0.68240147  0.39674471  0.66387236    -0.01400
C1070       C  0.64669590  0.39731389  0.66512380     0.03600
C1071       C  0.67279783  0.46621199  0.61650900     0.38200
C1072       C  0.70031419  0.40014849  0.69678731     0.38200
C1073       C  0.64028164  0.41456920  0.69441833     0.36700
C1074       C  0.71726201  0.44525944  0.58041803     0.36700
N1075       N  0.63617230  0.42913938  0.71767515    -0.38200
N1076       N  0.73369693  0.46708986  0.55850659    -0.38200
N1077       N  0.71036610  0.40238766  0.72484145    -0.37600
N1078       N  0.68461329  0.49909089  0.61945043    -0.37600
C1079       C  0.66059472  0.40798116  0.99031050    -0.04300
C1080       C  0.67048383  0.39053537  0.01649610    -0.01400
C1081       C  0.69570656  0.37676161  0.01105862     0.03600
C1082       C  0.71811020  0.38413916  0.98122388    -0.04300
C1083       C  0.71753559  0.41182743  0.95899023    -0.01400
C1084       C  0.68959675  0.42392473  0.96378563     0.03600
C1085       C  0.64623274  0.37458809  0.04544566     0.38200
C1086       C  0.74720622  0.43095360  0.93326966     0.38200
C1087       C  0.69820666  0.45958857  0.94743874     0.36700
C1088       C  0.69583547  0.35106558  0.03635354     0.36700
N1089       N  0.70768487  0.48951479  0.93554225    -0.38200
N1090       N  0.68957327  0.33573791  0.56225893    -0.38200
N1091       N  0.77058694  0.44763282  0.91254604    -0.37600
N1092       N  0.62212420  0.36113074  0.56887713    -0.37600
C1093       C  0.59078691  0.40050032  0.51711803    -0.04300
C1094       C  0.61095933  0.43117903  0.54156954    -0.01400
C1095       C  0.59837818  0.42424969  0.57620531     0.03600
C1096       C  0.57410716  0.38541190  0.58844246    -0.04300
C1097       C  0.54314633  0.36442006  0.56431980    -0.01400
C1098       C  0.55158319  0.37132808  0.52834419     0.03600
C1099       C  0.64407277  0.46912283  0.53204652     0.38200
C1100       C  0.50289961  0.33894796  0.57590127     0.38200
C1101       C  0.51815838  0.35605137  0.50510694     0.36700
C1102       C  0.59821782  0.45463890  0.59488588     0.36700
N1103       N  0.49417901  0.35281202  0.99513712    -0.38200
N1104       N  0.59735108  0.47865530  0.60964896    -0.38200
N1105       N  0.47056272  0.31864897  0.58470348    -0.37600
N1106       N  0.67079999  0.49955370  0.52468083    -0.37600
C1107       C  0.71591813  0.34517028  0.63942978    -0.04300
C1108       C  0.69163972  0.32833888  0.66750964    -0.01400
C1109       C  0.65313205  0.29309372  0.66358893     0.03600
C1110       C  0.63904545  0.27276345  0.63097952    -0.04300
C1111       C  0.67234295  0.28015032  0.61186438    -0.01400
C1112       C  0.71134326  0.31404924  0.61893386     0.03600
C1113       C  0.71216015  0.33715784  0.70012871     0.38200
C1114       C  0.67121858  0.24862903  0.59418481     0.38200
C1115       C  0.74199728  0.30516432  0.62260625     0.36700
C1116       C  0.63450468  0.27466321  0.69527208     0.36700
N1117       N  0.76489939  0.29603358  0.62517775    -0.38200
N1118       N  0.62222871  0.26268398  0.72198331    -0.38200
N1119       N  0.67478363  0.22491969  0.58193651    -0.37600
N1120       N  0.72825623  0.34401155  0.72630923    -0.37600
C1121       C  0.56515508  0.25089218  0.63512676    -0.04300
C1122       C  0.56882978  0.27158923  0.66448102    -0.01400
C1123       C  0.57497791  0.30994885  0.66160098     0.03600
C1124       C  0.57236554  0.32612411  0.62857308    -0.04300
C1125       C  0.55531546  0.29595547  0.60277493    -0.01400
C1126       C  0.54230278  0.25758670  0.61180834     0.03600
C1127       C  0.54899024  0.24778720  0.69402991     0.38200
C1128       C  0.54368126  0.29705257  0.56825960     0.38200
C1129       C  0.49962417  0.23410248  0.61658101     0.36700
C1130       C  0.57992579  0.32840447  0.69394259     0.36700
N1131       N  0.46568048  0.21585417  0.62044395    -0.38200
N1132       N  0.58443494  0.34007705  0.72137435    -0.38200
N1133       N  0.53271100  0.29302142  0.54026960    -0.37600
N1134       N  0.53257238  0.22874379  0.71739033    -0.37600
C1135       C  0.57504253  0.26508973  0.97772466    -0.04300
C1136       C  0.60842694  0.29827218  0.98907311    -0.01400
C1137       C  0.61887471  0.33319522  0.97248584     0.03600
C1138       C  0.59333601  0.34598715  0.97606700    -0.04300
C1139       C  0.55375235  0.31381964  0.96671490    -0.01400
C1140       C  0.54488882  0.27317531  0.96608934     0.03600
C1141       C  0.61452472  0.29492752  0.02446626     0.38200
C1142       C  0.52794866  0.32238789  0.94790466     0.38200
C1143       C  0.50551534  0.24253249  0.95562938     0.36700
C1144       C  0.62840311  0.33727203  0.93698202     0.36700
N1145       N  0.47309917  0.21925678  0.94784747    -0.38200
N1146       N  0.63213707  0.34026346  0.90791215    -0.38200
N1147       N  0.50769575  0.32858855  0.93123033    -0.37600
N1148       N  0.61660517  0.28769784  0.05261326    -0.37600
C1149       C  0.56877721  0.21413417  0.51436615    -0.04300
C1150       C  0.53986641  0.21257646  0.53569404    -0.01400
C1151       C  0.54206410  0.20594324  0.57114872     0.03600
C1152       C  0.57912797  0.21578879  0.58635408    -0.04300
C1153       C  0.59191653  0.19552870  0.56617047    -0.01400
C1154       C  0.58532759  0.19370034  0.52958270     0.03600
C1155       C  0.50433661  0.20879598  0.52147271     0.38200
C1156       C  0.59492875  0.16482014  0.58216583     0.38200
C1157       C  0.58063165  0.16118399  0.51041865     0.36700
C1158       C  0.50681659  0.17381406  0.58659052     0.36700
N1159       N  0.57375945  0.12726044  0.99635002    -0.38200
N1160       N  0.47896909  0.14762666  0.59875377    -0.38200
N1161       N  0.59656687  0.13957167  0.59435192    -0.37600
N1162       N  0.47521678  0.20503329  0.51085935    -0.37600
C1163       C  0.62646723  0.24626347  0.96730267    -0.04300
C1164       C  0.65715123  0.24816895  0.98850151    -0.01400
C1165       C  0.69483458  0.28450125  0.99418640     0.03600
C1166       C  0.70608804  0.31791522  0.97371559    -0.04300
C1167       C  0.68282911  0.30723648  0.94238066    -0.01400
C1168       C  0.64364545  0.27211492  0.93938423     0.03600
C1169       C  0.65994060  0.21397776  0.98711179     0.38200
C1170       C  0.69937683  0.33081592  0.91214232     0.38200
C1171       C  0.62151855  0.26263461  0.90757771     0.36700
C1172       C  0.72557703  0.28204304  0.01158590     0.36700
N1173       N  0.60457343  0.25524394  0.88176356    -0.38200
N1174       N  0.74799954  0.27560424  0.02408404    -0.38200
N1175       N  0.71183086  0.34849989  0.88731756    -0.37600
N1176       N  0.66391874  0.18777667  0.98551688    -0.37600
C1177       C  0.01958575  0.43086046  0.93656399    -0.04300
C1178       C  0.00083767  0.44447027  0.95724212    -0.01400
C1179       C  0.95874576  0.42434017  0.95857517     0.03600
C1180       C  0.93408662  0.39083995  0.93810269    -0.04300
C1181       C  0.95281230  0.37427877  0.92125315    -0.01400
C1182       C  0.99504856  0.39416357  0.92036040     0.03600
C1183       C  0.02495860  0.47988047  0.97696704     0.38200
C1184       C  0.92885960  0.33689037  0.90431618     0.38200
C1185       C  0.01300385  0.37780075  0.90075086     0.36700
C1186       C  0.94107274  0.43843325  0.98135900     0.36700
N1187       N  0.02718912  0.36460487  0.88506438    -0.38200
N1188       N  0.92703485  0.44949821  0.99978429    -0.38200
N1189       N  0.90979877  0.30685344  0.89105093    -0.37600
N1190       N  0.04415920  0.50819257  0.99263754    -0.37600
C1191       C  0.56256922  0.04527076  0.66480307    -0.04300
C1192       C  0.52072032  0.01905645  0.66082847    -0.01400
C1193       C  0.50320893  0.97811482  0.65609557     0.03600
C1194       C  0.52600303  0.96062079  0.65857458    -0.04300
C1195       C  0.56797719  0.98679792  0.66059395    -0.01400
C1196       C  0.58593921  0.02842281  0.66283701     0.03600
C1197       C  0.49457766  0.03365261  0.66202275     0.38200
C1198       C  0.59315023  0.97115822  0.66047710     0.38200
C1199       C  0.62877698  0.05373842  0.66367733     0.36700
C1200       C  0.46117868  0.95427029  0.64759249     0.36700
N1201       N  0.66301344  0.07390729  0.66397401    -0.38200
N1202       N  0.42769588  0.93570907  0.64061630    -0.38200
N1203       N  0.61340399  0.95880332  0.66021992    -0.37600
N1204       N  0.47350348  0.04499217  0.66343287    -0.37600
C1205       C  0.70604826  0.23032811  0.76815139    -0.04300
C1206       C  0.73528362  0.27005779  0.76260403    -0.01400
C1207       C  0.75705482  0.29623686  0.79006974     0.03600
C1208       C  0.75325935  0.28260244  0.82418682    -0.04300
C1209       C  0.72931405  0.24124936  0.82866764    -0.01400
C1210       C  0.70504430  0.21569061  0.80133619     0.03600
C1211       C  0.74645705  0.28253706  0.72795774     0.38200
C1212       C  0.73030607  0.22461608  0.86113546     0.38200
C1213       C  0.67955871  0.17411899  0.80730865     0.36700
C1214       C  0.78492687  0.33715117  0.78255938     0.36700
N1215       N  0.65951117  0.14083642  0.81206886    -0.38200
N1216       N  0.80708295  0.36982559  0.77649726    -0.38200
N1217       N  0.73182084  0.21133237  0.88687982    -0.37600
N1218       N  0.75615221  0.29184310  0.70024984    -0.37600
C1219       C  0.93647120  0.55087135  0.66756040    -0.04300
C1220       C  0.96120511  0.58839317  0.68249915    -0.01400
C1221       C  0.00347603  0.61009137  0.67892150     0.03600
C1222       C  0.02257792  0.59439671  0.66115631    -0.04300
C1223       C  0.99739823  0.55766809  0.64487555    -0.01400
C1224       C  0.95538417  0.53603760  0.64864807     0.03600
C1225       C  0.94366358  0.60315045  0.70467808     0.38200
C1226       C  0.01454851  0.54142242  0.62399511     0.38200
C1227       C  0.93169002  0.49736778  0.63383394     0.36700
C1228       C  0.02714285  0.64813256  0.69482415     0.36700
N1229       N  0.91298450  0.46630413  0.62237591    -0.38200
N1230       N  0.04572101  0.67862184  0.70740616    -0.38200
N1231       N  0.02815287  0.52843039  0.60727580    -0.37600
N1232       N  0.92973588  0.61459170  0.72282747    -0.37600
C1233       C  0.88951283  0.46920238  0.85053467    -0.04300
C1234       C  0.87817605  0.49666166  0.84886607    -0.01400
C1235       C  0.87586221  0.51119346  0.81689823     0.03600
C1236       C  0.88555302  0.49804109  0.78794206    -0.04300
C1237       C  0.90888881  0.48182927  0.79179189    -0.01400
C1238       C  0.91223433  0.46856904  0.82397154     0.03600
C1239       C  0.86642360  0.50755279  0.87912332     0.38200
C1240       C  0.92698839  0.47682195  0.76247153     0.38200
C1241       C  0.93622991  0.45190277  0.82922264     0.36700
C1242       C  0.85993609  0.53592780  0.81360800     0.36700
N1243       N  0.95588430  0.43913268  0.83348061    -0.38200
N1244       N  0.84753451  0.55593923  0.81107585    -0.38200
N1245       N  0.94146323  0.47314567  0.73890722    -0.37600
N1246       N  0.85757620  0.51680341  0.90329227    -0.37600
C1247       C  0.57726993  0.55042687  0.92742333    -0.04300
C1248       C  0.59263816  0.58620395  0.90911015    -0.01400
C1249       C  0.57280339  0.60709162  0.90847069     0.03600
C1250       C  0.53752102  0.59374875  0.92678251    -0.04300
C1251       C  0.52331456  0.55934041  0.94640220    -0.01400
C1252       C  0.54201723  0.53752300  0.94604594     0.03600
C1253       C  0.62827036  0.60128174  0.88954079     0.38200
C1254       C  0.48919100  0.54631282  0.96758389     0.38200
C1255       C  0.52272908  0.50010788  0.96331452     0.36700
C1256       C  0.58749439  0.64121390  0.88690044     0.36700
N1257       N  0.50693166  0.46995861  0.97663493    -0.38200
N1258       N  0.59895766  0.66829196  0.86952764    -0.38200
N1259       N  0.46225998  0.53611598  0.98483095    -0.37600
N1260       N  0.65664644  0.61352237  0.87374059    -0.37600
C1261       C  0.69337642  0.48329216  0.83104738    -0.04300
C1262       C  0.70405273  0.50941661  0.80316717    -0.01400
C1263       C  0.72929052  0.51092887  0.77674865     0.03600
C1264       C  0.74496719  0.48644532  0.77755979    -0.04300
C1265       C  0.73651415  0.46277188  0.80719030    -0.01400
C1266       C  0.70963131  0.45982813  0.83202526     0.03600
C1267       C  0.68750643  0.53360681  0.80089024     0.38200
C1268       C  0.75720484  0.44279804  0.81391768     0.38200
C1269       C  0.69753111  0.43123307  0.85853804     0.36700
C1270       C  0.73996443  0.53876841  0.74938624     0.36700
N1271       N  0.68694019  0.40776207  0.87940867    -0.38200
N1272       N  0.74884287  0.56150644  0.72783160    -0.38200
N1273       N  0.77414561  0.42744912  0.81988393    -0.37600
N1274       N  0.67396299  0.55266526  0.79914957    -0.37600
C1275       C  0.36431049  0.94569033  0.93418457    -0.04300
C1276       C  0.38383307  0.96726995  0.96413076    -0.01400
C1277       C  0.40196031  0.00873851  0.96507133     0.03600
C1278       C  0.40132430  0.02946374  0.93606219    -0.04300
C1279       C  0.37657960  0.00722924  0.90835126    -0.01400
C1280       C  0.35821453  0.96585469  0.90742266     0.03600
C1281       C  0.38382857  0.94663317  0.99442949     0.38200
C1282       C  0.37164119  0.02725331  0.87981930     0.38200
C1283       C  0.33481859  0.94436257  0.87779789     0.36700
C1284       C  0.41973022  0.03012238  0.99634259     0.36700
N1285       N  0.31588446  0.92697331  0.85429581    -0.38200
N1286       N  0.43297907  0.04718736  0.02148017    -0.38200
N1287       N  0.36754328  0.04337420  0.85722116    -0.37600
N1288       N  0.38319673  0.93027388  0.01895156    -0.37600
C1289       C  0.55937649  0.11428267  0.85814086    -0.04300
C1290       C  0.58969871  0.15056437  0.84643784    -0.01400
C1291       C  0.58576310  0.16142663  0.81347457     0.03600
C1292       C  0.56103070  0.13172730  0.78971059    -0.04300
C1293       C  0.53978183  0.09198920  0.80042155    -0.01400
C1294       C  0.54012927  0.08345847  0.83501529     0.03600
C1295       C  0.61937499  0.17850753  0.87016342     0.38200
C1296       C  0.51672216  0.06014337  0.77665316     0.38200
C1297       C  0.51788138  0.04377704  0.84767746     0.36700
C1298       C  0.60557908  0.20264546  0.80522201     0.36700
N1299       N  0.50056605  0.01198706  0.85769801    -0.38200
N1300       N  0.62042579  0.23560434  0.79935835    -0.38200
N1301       N  0.49852162  0.03463490  0.75777826    -0.37600
N1302       N  0.64346862  0.20046681  0.88906100    -0.37600
C1303       C  0.41800598  0.39186408  0.67780769    -0.04300
C1304       C  0.38398575  0.37553435  0.69859277    -0.01400
C1305       C  0.36222553  0.39407556  0.70193677     0.03600
C1306       C  0.37276506  0.42847126  0.68351269    -0.04300
C1307       C  0.40564048  0.44383112  0.66164668    -0.01400
C1308       C  0.42845683  0.42640044  0.65950424     0.03600
C1309       C  0.37269712  0.34093398  0.71855748     0.38200
C1310       C  0.41789532  0.47946445  0.64281868     0.38200
C1311       C  0.46368209  0.44507891  0.63898822     0.36700
C1312       C  0.32925037  0.37803750  0.72496692     0.36700
N1313       N  0.49197118  0.46045348  0.62281941    -0.38200
N1314       N  0.30303440  0.36540991  0.74344890    -0.38200
N1315       N  0.42741743  0.50787732  0.62790332    -0.37600
N1316       N  0.36357755  0.31331311  0.73456648    -0.37600
C1317       C  0.49046779  0.39990674  0.78895214    -0.04300
C1318       C  0.50680864  0.44016361  0.79388198    -0.01400
C1319       C  0.51012062  0.45386407  0.82703418     0.03600
C1320       C  0.50489260  0.42871223  0.85409344    -0.04300
C1321       C  0.47851244  0.38860927  0.84945757    -0.01400
C1322       C  0.47202004  0.37357750  0.81643419     0.03600
C1323       C  0.52208806  0.46737034  0.76569326     0.38200
C1324       C  0.46169419  0.36320235  0.87860529     0.38200
C1325       C  0.44983789  0.33159748  0.81156244     0.36700
C1326       C  0.52579576  0.49473027  0.83381263     0.36700
N1327       N  0.43201619  0.29806876  0.80784052    -0.38200
N1328       N  0.53788686  0.52724495  0.83938118    -0.38200
N1329       N  0.44747058  0.34285069  0.90176942    -0.37600
N1330       N  0.53482787  0.48927038  0.74333893    -0.37600
C1331       C  0.48097319  0.21504285  0.82823755    -0.04300
C1332       C  0.50641754  0.25637229  0.83002354    -0.01400
C1333       C  0.50860596  0.28149067  0.80306784     0.03600
C1334       C  0.48538007  0.26664127  0.77245657    -0.04300
C1335       C  0.45790079  0.22538506  0.77142596    -0.01400
C1336       C  0.45576645  0.20014818  0.79871923     0.03600
C1337       C  0.53086502  0.27393613  0.86012201     0.38200
C1338       C  0.43088344  0.20859244  0.74254139     0.38200
C1339       C  0.42550586  0.15885759  0.79720333     0.36700
C1340       C  0.53412648  0.32339370  0.80822641     0.36700
N1341       N  0.40080980  0.12601819  0.79604759    -0.38200
N1342       N  0.55426517  0.35674239  0.81268234    -0.38200
N1343       N  0.40906738  0.19520371  0.71958604    -0.37600
N1344       N  0.55024193  0.28835848  0.88418336    -0.37600
loop_ 
_geom_bond_atom_site_label_1 
_geom_bond_atom_site_label_2 
_geom_bond_distance 
_geom_bond_site_symmetry_2 
_ccdc_geom_bond_type 
In1           O3   2.338       .  S
In1           O4   2.283       .  S
In1          O12   2.250       .  S
In1           O6   2.335       .  S
In1           O8   2.260       .  S
In1           O9   2.152       .  S
In1          O10   2.345       .  S
In1          O13   2.298       .  S
C2            O8   1.265       .  A
C2           O10   1.276       .  A
C2          C662   1.546       .  S
O3           C11   1.266       .  A
O4           C11   1.269       .  A
C5           O12   1.259       .  A
C5            O6   1.270       .  A
C5          C631   1.534       .  S
C7            O9   1.253       .  A
C7           O13   1.268       .  A
C7          C645   1.478       .  S
C11          C82   1.563       .  S
In14         O16   2.304       .  S
In14         O17   2.290       .  S
In14         O25   2.313       .  S
In14         O19   2.273       .  S
In14         O21   2.289       .  S
In14         O22   2.174       .  S
In14         O23   2.333       .  S
In14         O26   2.228       .  S
C15          O21   1.265       .  A
C15          O23   1.275       .  A
C15         C659   1.539       .  S
O16          C24   1.266       .  A
O17          C24   1.271       .  A
C18          O25   1.276       .  A
C18          O19   1.266       .  A
C18         C606   1.529       .  S
C20          O22   1.258       .  A
C20          O26   1.274       .  A
C20         C617   1.469       .  S
C24          C79   1.559       .  S
In27         O29   2.383       .  S
In27         O30   2.326       .  S
In27         O38   2.289       .  S
In27         O32   2.345       .  S
In27         O34   2.403       .  S
In27         O35   2.278       .  S
In27         O36   2.298       .  S
In27         O39   2.241       .  S
C28          O34   1.274       .  A
C28          O36   1.257       .  A
C28         C589   1.553       .  S
O29          C37   1.260       .  A
O30          C37   1.263       .  A
C31          O38   1.265       .  A
C31          O32   1.270       .  A
C31         C575   1.542       .  S
C33          O35   1.243       .  A
C33          O39   1.253       .  A
C33         C648   1.460       .  S
C37          C81   1.578       .  S
In40         O42   2.344       .  S
In40         O43   2.283       .  S
In40         O51   2.242       .  S
In40         O45   2.319       .  S
In40         O47   2.388       .  S
In40         O48   2.215       .  S
In40         O49   2.283       .  S
In40         O52   2.189       .  S
C41          O47   1.277       .  A
C41          O49   1.260       .  A
C41         C592   1.562       .  S
O42          C50   1.264       .  A
O43          C50   1.273       .  A
C44          O51   1.261       .  A
C44          O45   1.274       .  A
C44         C547   1.519       .  S
C46          O48   1.272       .  A
C46          O52   1.259       .  A
C46         C564   1.462       .  S
C50          C84   1.566       .  S
In53         O55   2.293       .  S
In53         O56   2.351       .  S
In53         O64   2.353       .  S
In53         O58   2.288       .  S
In53         O60   2.289       .  S
In53         O61   2.229       .  S
In53         O62   2.359       .  S
In53         O65   2.163       .  S
C54          O60   1.262       .  A
C54          O62   1.277       .  A
C54         C533   1.552       .  S
O55          C63   1.276       .  A
O56          C63   1.263       .  A
C57          O64   1.264       .  A
C57          O58   1.260       .  A
C57         C519   1.546       .  S
C59          O61   1.262       .  A
C59          O65   1.254       .  A
C59         C620   1.464       .  S
C63          C80   1.572       .  S
In66         O68   2.326       .  S
In66         O69   2.276       .  S
In66         O77   2.337       .  S
In66         O71   2.281       .  S
In66         O73   2.362       .  S
In66         O74   2.163       .  S
In66         O75   2.309       .  S
In66         O78   2.238       .  S
C67          O73   1.272       .  A
C67          O75   1.261       .  A
C67         C536   1.541       .  S
O68          C76   1.258       .  A
O69          C76   1.271       .  A
C70          O77   1.268       .  A
C70          O71   1.258       .  A
C70         C508   1.545       .  S
C72          O74   1.258       .  A
C72          O78   1.265       .  A
C72         C561   1.471       .  S
C76          C83   1.556       .  S
C79         C463   1.619       .  S
C79         C491   1.644       .  S
C79        C1149   1.608       .  S
C80         C438   1.621       .  S
C80         C449   1.639       .  S
C80         C480   1.660       .  S
C81         C407   1.639       .  S
C81         C466   1.635       .  S
C81        C1093   1.630       .  S
C82         C393   1.627       .  S
C82         C424   1.632       .  S
C82         C452   1.641       .  S
C83         C410   1.621       .  S
C83         C494   1.640       .  S
C83        C1051   1.641       .  S
C84         C382   1.650       .  S
C84         C396   1.639       .  S
C84         C435   1.631       .  S
In85         O87   2.199       .  S
In85         O88   2.199       .  S
In85         O96   2.276       .  S
In85         O90   2.339       .  S
In85         O92   2.383       .  S
In85         O93   2.309       .  S
In85         O94   2.272       .  S
In85         O97   2.334       .  S
C86          O92   1.281       .  A
C86          O94   1.264       .  A
C86         C368   1.566       .  S
O87          C95   1.265       .  A
O88          C95   1.276       .  A
C89          O96   1.265       .  A
C89          O90   1.279       .  A
C89         C505   1.541       .  S
C91          O93   1.274       .  A
C91          O97   1.268       .  A
C91         C166   1.575       .  S
C95         C354   1.463       .  S
In98        O100   2.260       .  S
In98        O101   2.175       .  S
In98        O109   2.259       .  S
In98        O103   2.355       .  S
In98        O105   2.324       .  S
In98        O106   2.299       .  S
In98        O107   2.375       .  S
In98        O110   2.294       .  S
C99         O105   1.266       .  A
C99         O107   1.272       .  A
C99         C365   1.561       .  S
O100        C108   1.254       .  A
O101        C108   1.255       .  A
C102        O109   1.255       .  A
C102        O103   1.274       .  A
C102        C634   1.534       .  S
C104        O106   1.256       .  A
C104        O110   1.268       .  A
C104        C164   1.538       .  S
C108        C337   1.454       .  S
In111       O113   2.181       .  S
In111       O114   2.220       .  S
In111       O122   2.287       .  S
In111       O116   2.309       .  S
In111       O118   2.352       .  S
In111       O119   2.352       .  S
In111       O120   2.284       .  S
In111       O123   2.246       .  S
C112        O118   1.278       .  A
C112        O120   1.264       .  A
C112        C323   1.547       .  S
O113        C121   1.262       .  A
O114        C121   1.278       .  A
C115        O122   1.267       .  A
C115        O116   1.277       .  A
C115        C603   1.532       .  S
C117        O119   1.269       .  A
C117        O123   1.271       .  A
C117        C167   1.550       .  S
C121        C312   1.468       .  S
In124       O126   2.191       .  S
In124       O127   2.259       .  S
In124       O135   2.283       .  S
In124       O129   2.329       .  S
In124       O131   2.342       .  S
In124       O132   2.340       .  S
In124       O133   2.307       .  S
In124       O136   2.267       .  S
C125        O131   1.269       .  A
C125        O133   1.260       .  A
C125        C326   1.534       .  S
O126        C134   1.258       .  A
O127        C134   1.263       .  A
C128        O135   1.258       .  A
C128        O129   1.264       .  A
C128        C550   1.535       .  S
C130        O132   1.262       .  A
C130        O136   1.267       .  A
C130        C165   1.547       .  S
C134        C351   1.477       .  S
In137       O139   2.200       .  S
In137       O140   2.261       .  S
In137       O148   2.324       .  S
In137       O142   2.336       .  S
In137       O144   2.380       .  S
In137       O145   2.318       .  S
In137       O146   2.333       .  S
In137       O149   2.349       .  S
C138        O144   1.272       .  A
C138        O146   1.263       .  A
C138        C295   1.554       .  S
O139        C147   1.256       .  A
O140        C147   1.255       .  A
C141        O148   1.266       .  A
C141        O142   1.261       .  A
C141        C522   1.542       .  S
C143        O145   1.264       .  A
C143        O149   1.276       .  A
C143        C168   1.573       .  S
C147        C309   1.468       .  S
In150       O152   2.178       .  S
In150       O153   2.213       .  S
In150       O161   2.278       .  S
In150       O155   2.350       .  S
In150       O157   2.373       .  S
In150       O158   2.335       .  S
In150       O159   2.280       .  S
In150       O162   2.297       .  S
C151        O157   1.278       .  A
C151        O159   1.263       .  A
C151        C298   1.562       .  S
O152        C160   1.259       .  A
O153        C160   1.273       .  A
C154        O161   1.264       .  A
C154        O155   1.277       .  A
C154        C578   1.549       .  S
C156        O158   1.262       .  A
C156        O162   1.273       .  A
C156        C163   1.566       .  S
C160        C340   1.469       .  S
C163        C256   1.665       .  S
C163        C281   1.637       .  S
C163        C942   1.692       .  S
C164        C225   1.681       .  S
C164        C239   1.664       .  S
C164        C267   1.685       .  S
C165        C197   1.686       .  S
C165        C214   1.685       .  S
C165        C228   1.652       .  S
C166        C183   1.671       .  S
C166        C284   1.644       .  S
C166        C883   1.685       .  S
C167        C186   1.652       .  S
C167        C253   1.634       .  S
C167        C844   1.626       .  S
C168        C169   1.685       .  S
C168        C200   1.658       .  S
C168        C242   1.665       .  S
C169        C170   1.358       .  A
C169        C174   1.489       .  A
C170        C171   1.447       .  A
C170        C175   1.457       .  S
C171        C172   1.357       .  A
C171        C178   1.446       .  S
C172        C839   1.667   1_554  S
C172        C173   1.496       .  A
C173        C174   1.543       .  A
C173        C176   1.439       .  S
C174        C177   1.434       .  S
C175        N182   1.157       .  T
C176        N181   1.157   1_554  T
C177        N179   1.155       .  T
C178        N180   1.156       .  T
C183        C184   1.427       .  A
C183        C188   1.439       .  A
C184        C185   1.450       .  A
C184        C189   1.444       .  S
C185        C186   1.449       .  A
C185        C192   1.446       .  S
C186        C187   1.414       .  A
C187        C188   1.449       .  A
C187        C190   1.450       .  S
C188        C191   1.449       .  S
C189        N196   1.158       .  T
C190        N867   1.157       .  T
C191        N865   1.158       .  T
C192        N194   1.157       .  T
N193        C863   1.158       .  T
N195        C862   1.158       .  T
C197        C198   1.451       .  A
C197        C202   1.439       .  A
C198        C199   1.475       .  A
C198        C203   1.438       .  S
C199        C200   1.428       .  A
C199        C206   1.448       .  S
C200        C201   1.424       .  A
C201        C202   1.460       .  A
C201        C204   1.442       .  S
C202        C205   1.448       .  S
C203        N210   1.157       .  T
C204        N209   1.156       .  T
C205        N207   1.157       .  T
C206        N208   1.157       .  T
C211        C838   1.665   1_554  S
C211        C212   1.434       .  A
C211        C216   1.425       .  A
C212        C213   1.476       .  A
C212        C217   1.447       .  S
C213        C214   1.443       .  A
C213        C220   1.443       .  S
C214        C215   1.444       .  A
C215        C216   1.455       .  A
C215        C218   1.443       .  S
C216        C219   1.447       .  S
C217        N896   1.158   1_554  T
C218        N223   1.157       .  T
C219        N221   1.158       .  T
C220        N222   1.158       .  T
N224        C889   1.157       .  T
C225        C226   1.517       .  A
C225        C230   1.365       .  A
C226        C227   1.555       .  A
C226        C231   1.439       .  S
C227        C228   1.503       .  A
C227        C234   1.434       .  S
C228        C229   1.345       .  A
C229        C230   1.409       .  A
C229        C232   1.455       .  S
C230        C233   1.457       .  S
C231        N238   1.157       .  T
C232        N237   1.157       .  T
C233        N235   1.157       .  T
C234        N236   1.155       .  T
C239        C240   1.402       .  A
C239        C244   1.440       .  A
C240        C241   1.389       .  A
C240        C245   1.404       .  S
C241        C242   1.382       .  A
C241        C248   1.394       .  S
C242        C243   1.465       .  A
C243        C244   1.485       .  A
C243        C246   1.435       .  S
C244        C247   1.444       .  S
C245        N252   1.138       .  T
C246        N251   1.155       .  T
C247        N249   1.158       .  T
C248        N250   1.129       .  T
C253        C254   1.399       .  A
C253        C258   1.455       .  A
C254        C255   1.378       .  A
C254        C259   1.423       .  S
C255        C256   1.403       .  A
C255        C262   1.448       .  S
C256        C257   1.467       .  A
C257        C258   1.503       .  A
C257        C260   1.439       .  S
C258        C261   1.442       .  S
C259        N266   1.155       .  T
C260        N265   1.157       .  T
C261        N263   1.157       .  T
C262        N264   1.157       .  T
C267        C268   1.430       .  A
C267        C272   1.452       .  A
C268        C269   1.475       .  A
C268        C273   1.445       .  S
C269        C270   1.472       .  A
C269        C276   1.441   1_554  S
C270        C835   1.703   1_554  S
C270        C271   1.438       .  A
C271        C272   1.474       .  A
C271        C274   1.439       .  S
C272        C275   1.446       .  S
C273        N280   1.157       .  T
C274        N279   1.157       .  T
C275        N277   1.157       .  T
C276        N950   1.157       .  T
N278        C948   1.157       .  T
C281        C282   1.437       .  A
C281        C286   1.421       .  A
C282        C283   1.466       .  A
C282        C287   1.447       .  S
C283        C284   1.461       .  A
C283        C290   1.434       .  S
C284        C285   1.405       .  A
C285        C286   1.402       .  A
C285        C960   1.446       .  S
C286        C961   1.426       .  S
C287        N294   1.158       .  T
C288        C957   1.425   1_554  S
C288        N293   1.146       .  T
C289        C958   1.399   1_554  S
C289        N291   1.137       .  T
C290        N292   1.155       .  T
C295        C296   1.418       .  A
C295        C300   1.425       .  A
C296        C297   1.433       .  A
C296        C301   1.444       .  S
C297        C298   1.431       .  A
C297        C304   1.452       .  S
C298        C299   1.429       .  A
C299        C300   1.446       .  A
C299        C302   1.448       .  S
C300        C303   1.448       .  S
C301        N308   1.155       .  T
C302        N307   1.158       .  T
C303        N305   1.157       .  T
C304        N306   1.158       .  T
C309        C310   1.401       .  A
C309        C314   1.403       .  A
C310        C311   1.406       .  A
C310        C315   1.448       .  S
C311        C312   1.418       .  A
C311        C318   1.450       .  S
C312        C313   1.408       .  A
C313        C314   1.402       .  A
C313        C316   1.448       .  S
C314        C317   1.447       .  S
C315        N322   1.157       .  T
C316        N321   1.157       .  T
C317        N319   1.156       .  T
C318        N320   1.157       .  T
C323        C324   1.424       .  A
C323        C328   1.430       .  A
C324        C325   1.437       .  A
C324        C329   1.447       .  S
C325        C326   1.422       .  A
C325        C332   1.450       .  S
C326        C327   1.413       .  A
C327        C328   1.430       .  A
C327        C330   1.448       .  S
C328        C331   1.449       .  S
C329        N336   1.157       .  T
C330        N335   1.156       .  T
C331        N333   1.157       .  T
C332        N334   1.158       .  T
C337        C338   1.400       .  A
C337        C342   1.405       .  A
C338        C339   1.404       .  A
C338        C343   1.449       .  S
C339        C340   1.420       .  A
C339        C346   1.450       .  S
C340        C341   1.410       .  A
C341        C342   1.395       .  A
C341        C344   1.449       .  S
C342        C345   1.453       .  S
C343        N350   1.158       .  T
C344        N349   1.157       .  T
C345        N347   1.157       .  T
C346        N348   1.157       .  T
C351        C352   1.406       .  A
C351        C356   1.410       .  A
C352        C353   1.405       .  A
C352        C357   1.446       .  S
C353        C354   1.414       .  A
C353        C360   1.451       .  S
C354        C355   1.405       .  A
C355        C356   1.401       .  A
C355        C358   1.450       .  S
C356        C359   1.450       .  S
C357        N364   1.157       .  T
C358        N363   1.157       .  T
C359        N361   1.157       .  T
C360        N362   1.158       .  T
C365        C366   1.428       .  A
C365        C370   1.419       .  A
C366        C367   1.448       .  A
C366        C371   1.448       .  S
C367        C368   1.429       .  A
C367        C374   1.448       .  S
C368        C369   1.432       .  A
C369        C370   1.433       .  A
C369        C372   1.452       .  S
C370        C373   1.443       .  S
C371        N378   1.157       .  T
C372        N377   1.158       .  T
C373        N375   1.154       .  T
C374        N376   1.157       .  T
C379        C755   1.644   1_554  S
C379        C380   1.443       .  A
C379        C384   1.417       .  A
C380        C381   1.447       .  A
C380        C385   1.445       .  S
C381        C382   1.420       .  A
C381        C388   1.449       .  S
C382        C383   1.433       .  A
C383        C384   1.453       .  A
C383        C386   1.451       .  S
C384        C387   1.446       .  S
C385       N1064   1.157   1_554  T
C386        N391   1.157       .  T
C387        N389   1.158       .  T
C388        N390   1.157       .  T
N392       C1057   1.157       .  T
C393        C394   1.418       .  A
C393        C398   1.388       .  A
C394        C395   1.427       .  A
C394        C399   1.455       .  S
C395        C396   1.441       .  A
C395        C402   1.440       .  S
C396        C397   1.472       .  A
C397        C398   1.435       .  A
C397        C400   1.440       .  S
C398        C401   1.453       .  S
C399        N406   1.158       .  T
C400        N405   1.154       .  T
C401        N403   1.158       .  T
C402        N404   1.159       .  T
C407        C408   1.408       .  A
C407        C412   1.448       .  A
C408        C409   1.413       .  A
C408        C413   1.420       .  S
C409        C410   1.424       .  A
C409        C416   1.433       .  S
C410        C411   1.428       .  A
C411        C412   1.455       .  A
C411        C414   1.444       .  S
C412        C415   1.440       .  S
C413       N1092   1.145       .  T
C414        N419   1.158       .  T
C415        N417   1.156       .  T
C416       N1090   1.144       .  T
N418       C1088   1.145       .  T
N420       C1085   1.146       .  T
C421        C753   1.616   1_554  S
C421        C422   1.426       .  A
C421        C426   1.436       .  A
C422        C423   1.430       .  A
C422        C427   1.443       .  S
C423        C424   1.419       .  A
C423        C430   1.446       .  S
C424        C425   1.414       .  A
C425        C426   1.448       .  A
C425        C428   1.449       .  S
C426        C429   1.441       .  S
C427        N434   1.157       .  T
C428        N433   1.157       .  T
C429       N1103   1.157   1_554  T
C430        N432   1.157       .  T
N431       C1101   1.157       .  T
C435        C436   1.389       .  A
C435        C440   1.422       .  A
C436        C437   1.433       .  A
C436        C441   1.452       .  S
C437        C438   1.463       .  A
C437        C444   1.443       .  S
C438        C439   1.431       .  A
C439        C440   1.435       .  A
C439        C442   1.439       .  S
C440        C443   1.457       .  S
C441        N448   1.157       .  T
C442        N447   1.157       .  T
C443        N445   1.158       .  T
C444        N446   1.156       .  T
C449        C450   1.404       .  A
C449        C454   1.409       .  A
C450        C451   1.449       .  A
C450        C455   1.451       .  S
C451        C452   1.470       .  A
C451        C458   1.440       .  S
C452        C453   1.446       .  A
C453        C454   1.401       .  A
C453        C456   1.436       .  S
C454        C457   1.456       .  S
C455        N462   1.158       .  T
C456        N461   1.158       .  T
C457        N459   1.158       .  T
C458        N460   1.155       .  T
C463        C464   1.368       .  A
C463        C468   1.475       .  A
C464        C465   1.390       .  A
C464        C469   1.427       .  S
C465        C466   1.381       .  A
C465        C472   1.433       .  S
C466        C467   1.450       .  A
C467        C468   1.491       .  A
C467        C470   1.444       .  S
C468        C471   1.437       .  S
C469        N476   1.155       .  T
C470        N475   1.158       .  T
C471        N473   1.156       .  T
C472        N474   1.151       .  T
C477        C751   1.614   1_554  S
C477        C478   1.420       .  A
C477        C482   1.427       .  A
C478        C479   1.432       .  A
C478        C483   1.441       .  S
C479        C480   1.425       .  A
C479        C486   1.451       .  S
C480        C481   1.433       .  A
C481        C482   1.457       .  A
C481        C484   1.448       .  S
C482        C485   1.450       .  S
C483        N490   1.157       .  T
C484        N489   1.157       .  T
C485       N1159   1.158   1_554  T
C486        N488   1.157       .  T
N487       C1157   1.157       .  T
C491        C492   1.426       .  A
C491        C496   1.410       .  A
C492        C493   1.443       .  A
C492        C497   1.451       .  S
C493        C494   1.427       .  A
C493        C500   1.438       .  S
C494        C495   1.455       .  A
C495        C496   1.445       .  A
C495        C498   1.449       .  S
C496        C499   1.443       .  S
C497        N504   1.158       .  T
C498        N503   1.158       .  T
C499        N501   1.157       .  T
C500        N502   1.157       .  T
C505        C506   1.420       .  A
C505        C510   1.422   1_455  A
C506        C507   1.430   1_455  A
C506        C511   1.449       .  S
C507        C508   1.428       .  A
C507        C514   1.452       .  S
C508        C509   1.426       .  A
C509        C510   1.436       .  A
C509        C512   1.449       .  S
C510        C513   1.448   1_655  S
C511        N518   1.157       .  T
C512        N517   1.158       .  T
C513        N515   1.157       .  T
C514        N516   1.158       .  T
C519        C520   1.425       .  A
C519        C524   1.426       .  A
C520        C521   1.427   1_545  A
C520        C525   1.452       .  S
C521        C522   1.420       .  A
C521        C528   1.448       .  S
C522        C523   1.424       .  A
C523        C524   1.441   1_565  A
C523        C526   1.449       .  S
C524        C527   1.449       .  S
C525        N532   1.157       .  T
C526        N531   1.158       .  T
C527        N529   1.158       .  T
C528        N530   1.156       .  T
C533        C534   1.423       .  A
C533        C538   1.433       .  A
C534        C535   1.436       .  A
C534        C539   1.447       .  S
C535        C536   1.422       .  A
C535        C542   1.449       .  S
C536        C537   1.415       .  A
C537        C538   1.436       .  A
C537        C540   1.447       .  S
C538        C541   1.450       .  S
C539        N546   1.158       .  T
C540        N545   1.157       .  T
C541        N543   1.157       .  T
C542        N544   1.157       .  T
C547        C548   1.417       .  A
C547        C552   1.414       .  A
C548        C549   1.431   1_655  A
C548        C553   1.450       .  S
C549        C550   1.426       .  A
C549        C556   1.449       .  S
C550        C551   1.425   1_455  A
C551        C552   1.422       .  A
C551        C554   1.450   1_655  S
C552        C555   1.452       .  S
C553        N560   1.158       .  T
C554        N559   1.158       .  T
C555        N557   1.157       .  T
C556        N558   1.157       .  T
C561        C562   1.406       .  A
C561        C566   1.410       .  A
C562        C563   1.403       .  A
C562        C567   1.451       .  S
C563        C564   1.417       .  A
C563        C570   1.451       .  S
C564        C565   1.407       .  A
C565        C566   1.398       .  A
C565        C568   1.450       .  S
C566        C569   1.452       .  S
C567        N574   1.157       .  T
C568        N573   1.157       .  T
C569        N571   1.158       .  T
C570        N572   1.158       .  T
C575        C576   1.421       .  A
C575        C580   1.423       .  A
C576        C577   1.440       .  A
C576        C581   1.449       .  S
C577        C578   1.429       .  A
C577        C584   1.448       .  S
C578        C579   1.425       .  A
C579        C580   1.428       .  A
C579        C582   1.450       .  S
C580        C583   1.452       .  S
C581        N588   1.158       .  T
C582        N587   1.157       .  T
C583        N585   1.158       .  T
C584        N586   1.157       .  T
C589        C590   1.424       .  A
C589        C594   1.414       .  A
C590        C591   1.450       .  A
C590        C595   1.447       .  S
C591        C592   1.432       .  A
C591        C598   1.447       .  S
C592        C593   1.429       .  A
C593        C594   1.427       .  A
C593        C596   1.451       .  S
C594        C597   1.441       .  S
C595        N602   1.158       .  T
C596        N601   1.158       .  T
C597        N599   1.152       .  T
C598        N600   1.157       .  T
C603        C604   1.422       .  A
C603        C608   1.423       .  A
C604        C605   1.428   1_565  A
C604        C609   1.446       .  S
C605        C606   1.415       .  A
C605        C612   1.450       .  S
C606        C607   1.421       .  A
C607        C608   1.432   1_545  A
C607        C610   1.450       .  S
C608        C611   1.451       .  S
C609        N616   1.157       .  T
C610        N615   1.157       .  T
C611        N613   1.158       .  T
C612        N614   1.157       .  T
C617        C618   1.408       .  A
C617        C622   1.418       .  A
C618        C619   1.401       .  A
C618        C623   1.450       .  S
C619        C620   1.413       .  A
C619        C626   1.453       .  S
C620        C621   1.405       .  A
C621        C622   1.401       .  A
C621        C624   1.452       .  S
C622        C625   1.450       .  S
C623        N630   1.157       .  T
C624        N629   1.157       .  T
C625        N627   1.157       .  T
C626        N628   1.158       .  T
C631        C632   1.423       .  A
C631        C636   1.419       .  A
C632        C633   1.435       .  A
C632        C637   1.448       .  S
C633        C634   1.422       .  A
C633        C640   1.448       .  S
C634        C635   1.425       .  A
C635        C636   1.422       .  A
C635        C638   1.452       .  S
C636        C639   1.452       .  S
C637        N644   1.157       .  T
C638        N643   1.157       .  T
C639        N641   1.158       .  T
C640        N642   1.158       .  T
C645        C646   1.404       .  A
C645        C650   1.416       .  A
C646        C647   1.408       .  A
C646        C651   1.447       .  S
C647        C648   1.413       .  A
C647        C654   1.449       .  S
C648        C649   1.398       .  A
C649        C650   1.400       .  A
C649        C652   1.447       .  S
C650        C653   1.450       .  S
C651        N658   1.157       .  T
C652        N657   1.157       .  T
C653        N655   1.157       .  T
C654        N656   1.157       .  T
C659        C660   1.416       .  A
C659        C664   1.420       .  A
C660        C661   1.425       .  A
C660        C665   1.439       .  S
C661        C662   1.426       .  A
C661        C668   1.454       .  S
C662        C663   1.427       .  A
C663        C664   1.438       .  A
C663        C666   1.447       .  S
C664        C667   1.448       .  S
C665        N672   1.152       .  T
C666        N671   1.157       .  T
C667        N669   1.157       .  T
C668        N670   1.158       .  T
In673       O675   2.295       .  S
In673       O676   2.353       .  S
In673       O684   2.316       .  S
In673       O678   2.279       .  S
In673       O680   2.276       .  S
In673       O681   2.171       .  S
In673       O682   2.375       .  S
In673       O685   2.229       .  S
C674        O680   1.262       .  A
C674        O682   1.278       .  A
C674       C1334   1.560       .  S
O675        C683   1.273       .  A
O676        C683   1.267       .  A
C677        O684   1.275       .  A
C677        O678   1.264       .  A
C677       C1303   1.529       .  S
C679        O681   1.259       .  A
C679        O685   1.276       .  A
C679       C1317   1.463       .  S
C683        C754   1.576       .  S
In686       O688   2.305       .  S
In686       O689   2.293       .  S
In686       O697   2.349       .  S
In686       O691   2.281       .  S
In686       O693   2.345       .  S
In686       O694   2.202       .  S
In686       O695   2.374       .  S
In686       O698   2.221       .  S
C687        O693   1.264       .  A
C687        O695   1.262       .  A
C687       C1331   1.561       .  S
O688        C696   1.274       .  A
O689        C696   1.259       .  A
C690        O697   1.269       .  A
C690        O691   1.252       .  A
C690       C1278   1.521       .  S
C692        O694   1.262       .  A
C692        O698   1.254       .  A
C692       C1289   1.450       .  S
C696        C751   1.555       .  S
In699       O701   2.344       .  S
In699       O702   2.310       .  S
In699       O710   2.307       .  S
In699       O704   2.334       .  S
In699       O706   2.313       .  S
In699       O707   2.174       .  S
In699       O708   2.351       .  S
In699       O711   2.261       .  S
C700        O706   1.264       .  A
C700        O708   1.272       .  A
C700       C1261   1.542       .  S
O701        C709   1.263       .  A
O702        C709   1.273       .  A
C703        O710   1.263       .  A
C703        O704   1.265       .  A
C703       C1247   1.551       .  S
C705        O707   1.255       .  A
C705        O711   1.259       .  A
C705       C1320   1.466       .  S
C709        C753   1.570       .  S
In712       O714   2.284       .  S
In712       O715   2.366       .  S
In712       O723   2.267       .  S
In712       O717   2.318       .  S
In712       O719   2.267       .  S
In712       O720   2.197       .  S
In712       O721   2.366       .  S
In712       O724   2.203       .  S
C713        O719   1.265       .  A
C713        O721   1.279       .  A
C713       C1264   1.555       .  S
O714        C722   1.273       .  A
O715        C722   1.270       .  A
C716        O723   1.266       .  A
C716        O717   1.278       .  A
C716       C1219   1.533       .  S
C718        O720   1.264       .  A
C718        O724   1.278       .  A
C718       C1236   1.463       .  S
C722        C756   1.578       .  S
In725       O727   2.273       .  S
In725       O728   2.350       .  S
In725       O736   2.354       .  S
In725       O730   2.263       .  S
In725       O732   2.386       .  S
In725       O733   2.178       .  S
In725       O734   2.310       .  S
In725       O737   2.234       .  S
C726        O732   1.266       .  A
C726        O734   1.254       .  A
C726       C1205   1.542       .  S
O727        C735   1.271       .  A
O728        C735   1.261       .  A
C729        O736   1.277       .  A
C729        O730   1.264       .  A
C729       C1191   1.548       .  S
C731        O733   1.249       .  A
C731        O737   1.260       .  A
C731       C1292   1.462       .  S
C735        C752   1.564       .  S
In738       O740   2.285       .  S
In738       O741   2.329       .  S
In738       O749   2.282       .  S
In738       O743   2.314       .  S
In738       O745   2.351       .  S
In738       O746   2.221       .  S
In738       O747   2.319       .  S
In738       O750   2.248       .  S
C739        O745   1.269       .  A
C739        O747   1.264       .  A
C739       C1208   1.552       .  S
O740        C748   1.270       .  A
O741        C748   1.257       .  A
C742        O749   1.258       .  A
C742        O743   1.264       .  A
C742       C1180   1.530       .  S
C744        O746   1.258       .  A
C744        O750   1.261       .  A
C744       C1233   1.479       .  S
C748        C755   1.560       .  S
C751       C1135   1.612       .  S
C751       C1163   1.659       .  S
C752       C1110   1.634       .  S
C752       C1121   1.630       .  S
C752       C1152   1.662       .  S
C753       C1079   1.634       .  S
C753       C1138   1.632       .  S
C754       C1065   1.637       .  S
C754       C1096   1.643       .  S
C754       C1124   1.636       .  S
C755       C1082   1.617       .  S
C755       C1166   1.641       .  S
C756       C1054   1.649       .  S
C756       C1068   1.647       .  S
C756       C1107   1.642       .  S
In757       O759   2.208       .  S
In757       O760   2.217       .  S
In757       O768   2.260       .  S
In757       O762   2.319       .  S
In757       O764   2.360       .  S
In757       O765   2.287       .  S
In757       O766   2.279       .  S
In757       O769   2.327       .  S
C758        O764   1.273       .  A
C758        O766   1.261       .  A
C758       C1040   1.540       .  S
O759        C767   1.266       .  A
O760        C767   1.257       .  A
C761        O768   1.261       .  A
C761        O762   1.273       .  A
C761       C1177   1.523       .  S
C763        O765   1.267       .  A
C763        O769   1.262       .  A
C763        C838   1.561       .  S
C767       C1026   1.472       .  S
In770       O772   2.248       .  S
In770       O773   2.185       .  S
In770       O781   2.301       .  S
In770       O775   2.295       .  S
In770       O777   2.352       .  S
In770       O778   2.343       .  S
In770       O779   2.314       .  S
In770       O782   2.275       .  S
C771        O777   1.271       .  A
C771        O779   1.259       .  A
C771       C1037   1.536       .  S
O772        C780   1.255       .  A
O773        C780   1.261       .  A
C774        O781   1.260       .  A
C774        O775   1.264       .  A
C774       C1306   1.522       .  S
C776        O778   1.259       .  A
C776        O782   1.267       .  A
C776        C836   1.547       .  S
C780       C1009   1.453       .  S
In783       O785   2.202       .  S
In783       O786   2.230       .  S
In783       O794   2.323       .  S
In783       O788   2.310       .  S
In783       O790   2.312       .  S
In783       O791   2.335       .  S
In783       O792   2.360       .  S
In783       O795   2.287       .  S
C784        O790   1.257       .  A
C784        O792   1.272       .  A
C784        C995   1.550       .  S
O785        C793   1.258       .  A
O786        C793   1.264       .  A
C787        O794   1.267       .  A
C787        O788   1.260       .  A
C787       C1275   1.529       .  S
C789        O791   1.260       .  A
C789        O795   1.266       .  A
C789        C839   1.558       .  S
C793        C984   1.477       .  S
In796       O798   2.227       .  S
In796       O799   2.184       .  S
In796       O807   2.338       .  S
In796       O801   2.273       .  S
In796       O803   2.375       .  S
In796       O804   2.336       .  S
In796       O805   2.285       .  S
In796       O808   2.298       .  S
C797        O803   1.276       .  A
C797        O805   1.260       .  A
C797        C998   1.550       .  S
O798        C806   1.268       .  A
O799        C806   1.256       .  A
C800        O807   1.272       .  A
C800        O801   1.261       .  A
C800       C1222   1.542       .  S
C802        O804   1.263       .  A
C802        O808   1.268       .  A
C802        C837   1.565       .  S
C806       C1023   1.471       .  S
In809       O811   2.205       .  S
In809       O812   2.226       .  S
In809       O820   2.258       .  S
In809       O814   2.339       .  S
In809       O816   2.249       .  S
In809       O817   2.310       .  S
In809       O818   2.379       .  S
In809       O821   2.361       .  S
C810        O816   1.262       .  A
C810        O818   1.279       .  A
C810        C967   1.555       .  S
O811        C819   1.262       .  A
O812        C819   1.275       .  A
C813        O820   1.266       .  A
C813        O814   1.280       .  A
C813       C1194   1.548       .  S
C815        O817   1.269       .  A
C815        O821   1.275       .  A
C815        C840   1.587       .  S
C819        C981   1.472       .  S
In822       O824   2.202       .  S
In822       O825   2.174       .  S
In822       O833   2.285       .  S
In822       O827   2.325       .  S
In822       O829   2.367       .  S
In822       O830   2.256       .  S
In822       O831   2.278       .  S
In822       O834   2.353       .  S
C823        O829   1.279       .  A
C823        O831   1.264       .  A
C823        C970   1.554       .  S
O824        C832   1.276       .  A
O825        C832   1.260       .  A
C826        O833   1.267       .  A
C826        O827   1.278       .  A
C826       C1250   1.538       .  S
C828        O830   1.274       .  A
C828        O834   1.266       .  A
C828        C835   1.562       .  S
C832       C1012   1.458       .  S
C835        C928   1.676       .  S
C835        C953   1.641       .  S
C836        C897   1.664       .  S
C836        C911   1.585       .  S
C836        C939   1.693       .  S
C837        C869   1.656       .  S
C837        C886   1.687       .  S
C837        C900   1.674       .  S
C838        C855   1.659       .  S
C838        C956   1.624       .  S
C839        C858   1.678       .  S
C839        C925   1.648       .  S
C840        C841   1.638       .  S
C840        C872   1.592       .  S
C840        C914   1.635       .  S
C841        C842   1.372       .  A
C841        C846   1.467       .  A
C842        C843   1.422       .  A
C842        C847   1.441       .  S
C843        C844   1.358       .  A
C843        C850   1.455       .  S
C844        C845   1.471       .  A
C845        C846   1.510       .  A
C845        C848   1.432       .  S
C846        C849   1.440       .  S
C847        N854   1.156       .  T
C848        N853   1.154       .  T
C849        N851   1.157       .  T
C850        N852   1.158       .  T
C855        C856   1.428       .  A
C855        C860   1.440       .  A
C856        C857   1.439       .  A
C856        C861   1.447       .  S
C857        C858   1.444       .  A
C857        C864   1.445       .  S
C858        C859   1.444       .  A
C859        C860   1.466       .  A
C859        C862   1.449       .  S
C860        C863   1.443       .  S
C861        N868   1.157       .  T
C864        N866   1.157       .  T
C869        C870   1.446       .  A
C869        C874   1.428       .  A
C870        C871   1.450       .  A
C870        C875   1.442       .  S
C871        C872   1.416       .  A
C871        C878   1.448       .  S
C872        C873   1.425       .  A
C873        C874   1.417       .  A
C873        C876   1.447       .  S
C874        C877   1.439       .  S
C875        N882   1.158       .  T
C876        N881   1.156       .  T
C877        N879   1.155       .  T
C878        N880   1.157       .  T
C883        C884   1.430       .  A
C883        C888   1.444       .  A
C884        C885   1.464       .  A
C884        C889   1.451       .  S
C885        C886   1.447       .  A
C885        C892   1.440       .  S
C886        C887   1.436       .  A
C887        C888   1.466       .  A
C887        C890   1.450       .  S
C888        C891   1.445       .  S
C890        N895   1.158       .  T
C891        N893   1.158       .  T
C892        N894   1.157       .  T
C897        C898   1.432       .  A
C897        C902   1.448       .  A
C898        C899   1.454       .  A
C898        C903   1.440       .  S
C899        C900   1.439       .  A
C899        C906   1.446       .  S
C900        C901   1.421       .  A
C901        C902   1.436       .  A
C901        C904   1.446       .  S
C902        C905   1.447       .  S
C903        N910   1.156       .  T
C904        N909   1.158       .  T
C905        N907   1.157       .  T
C906        N908   1.158       .  T
C911        C912   1.406       .  A
C911        C916   1.426       .  A
C912        C913   1.385       .  A
C912        C917   1.477       .  S
C913        C914   1.430       .  A
C913        C920   1.420       .  S
C914        C915   1.446       .  A
C915        C916   1.451       .  A
C915        C918   1.443       .  S
C916        C919   1.445       .  S
C917        N924   1.155       .  T
C918        N923   1.158       .  T
C919        N921   1.157       .  T
C920        N922   1.147       .  T
C925        C926   1.412       .  A
C925        C930   1.425       .  A
C926        C927   1.430       .  A
C926        C931   1.446       .  S
C927        C928   1.446       .  A
C927        C934   1.440       .  S
C928        C929   1.448       .  A
C929        C930   1.466       .  A
C929        C932   1.436       .  S
C930        C933   1.445       .  S
C931        N938   1.158       .  T
C932        N937   1.157       .  T
C933        N935   1.157       .  T
C934        N936   1.155       .  T
C939        C940   1.430       .  A
C939        C944   1.451       .  A
C940        C941   1.473       .  A
C940        C945   1.439       .  S
C941        C942   1.464       .  A
C941        C948   1.450       .  S
C942        C943   1.425       .  A
C943        C944   1.456       .  A
C943        C946   1.438       .  S
C944        C947   1.444       .  S
C945        N952   1.157       .  T
C946        N951   1.156       .  T
C947        N949   1.157       .  T
C953        C954   1.430       .  A
C953        C958   1.421       .  A
C954        C955   1.461       .  A
C954        C959   1.447       .  S
C955        C956   1.454       .  A
C955        C962   1.439       .  S
C956        C957   1.385       .  A
C957        C958   1.390       .  A
C959        N966   1.158       .  T
C960        N965   1.158       .  T
C961        N963   1.151       .  T
C962        N964   1.156       .  T
C967        C968   1.420       .  A
C967        C972   1.430       .  A
C968        C969   1.416       .  A
C968        C973   1.451       .  S
C969        C970   1.421       .  A
C969        C976   1.443       .  S
C970        C971   1.431       .  A
C971        C972   1.450       .  A
C971        C974   1.449       .  S
C972        C975   1.447       .  S
C973        N980   1.158       .  T
C974        N979   1.158       .  T
C975        N977   1.158       .  T
C976        N978   1.156       .  T
C981        C982   1.407       .  A
C981        C986   1.416       .  A
C982        C983   1.403       .  A
C982        C987   1.448       .  S
C983        C984   1.412       .  A
C983        C990   1.450       .  S
C984        C985   1.407       .  A
C985        C986   1.406       .  A
C985        C988   1.450       .  S
C986        C989   1.449       .  S
C987        N994   1.156       .  T
C988        N993   1.158       .  T
C989        N991   1.157       .  T
C990        N992   1.157       .  T
C995        C996   1.418       .  A
C995       C1000   1.431       .  A
C996        C997   1.432       .  A
C996       C1001   1.447       .  S
C997        C998   1.427       .  A
C997       C1004   1.449       .  S
C998        C999   1.422       .  A
C999       C1000   1.440       .  A
C999       C1002   1.449       .  S
C1000      C1003   1.450       .  S
C1001      N1008   1.156       .  T
C1002      N1007   1.158       .  T
C1003      N1005   1.157       .  T
C1004      N1006   1.157       .  T
C1009      C1010   1.396       .  A
C1009      C1014   1.406       .  A
C1010      C1011   1.401       .  A
C1010      C1015   1.448       .  S
C1011      C1012   1.415       .  A
C1011      C1018   1.447       .  S
C1012      C1013   1.407       .  A
C1013      C1014   1.401       .  A
C1013      C1016   1.451       .  S
C1014      C1017   1.449       .  S
C1015      N1022   1.157       .  T
C1016      N1021   1.157       .  T
C1017      N1019   1.157       .  T
C1018      N1020   1.156       .  T
C1023      C1024   1.406       .  A
C1023      C1028   1.414       .  A
C1024      C1025   1.403       .  A
C1024      C1029   1.450       .  S
C1025      C1026   1.414       .  A
C1025      C1032   1.449       .  S
C1026      C1027   1.408       .  A
C1027      C1028   1.400       .  A
C1027      C1030   1.451       .  S
C1028      C1031   1.451       .  S
C1029      N1036   1.157       .  T
C1030      N1035   1.157       .  T
C1031      N1033   1.158       .  T
C1032      N1034   1.157       .  T
C1037      C1038   1.423       .  A
C1037      C1042   1.411       .  A
C1038      C1039   1.438       .  A
C1038      C1043   1.448       .  S
C1039      C1040   1.422       .  A
C1039      C1046   1.448       .  S
C1040      C1041   1.425       .  A
C1041      C1042   1.428       .  A
C1041      C1044   1.450       .  S
C1042      C1045   1.443       .  S
C1043      N1050   1.157       .  T
C1044      N1049   1.157       .  T
C1045      N1047   1.155       .  T
C1046      N1048   1.158       .  T
C1051      C1052   1.441       .  A
C1051      C1056   1.417       .  A
C1052      C1053   1.446       .  A
C1052      C1057   1.445       .  S
C1053      C1054   1.422       .  A
C1053      C1060   1.448       .  S
C1054      C1055   1.431       .  A
C1055      C1056   1.453       .  A
C1055      C1058   1.450       .  S
C1056      C1059   1.447       .  S
C1058      N1063   1.157       .  T
C1059      N1061   1.158       .  T
C1060      N1062   1.158       .  T
C1065      C1066   1.422       .  A
C1065      C1070   1.391       .  A
C1066      C1067   1.432       .  A
C1066      C1071   1.456       .  S
C1067      C1068   1.441       .  A
C1067      C1074   1.440       .  S
C1068      C1069   1.469       .  A
C1069      C1070   1.440       .  A
C1069      C1072   1.438       .  S
C1070      C1073   1.454       .  S
C1071      N1078   1.158       .  T
C1072      N1077   1.155       .  T
C1073      N1075   1.158       .  T
C1074      N1076   1.159       .  T
C1079      C1080   1.408   1_556  A
C1079      C1084   1.445       .  A
C1080      C1081   1.410       .  A
C1080      C1085   1.421       .  S
C1081      C1082   1.423   1_554  A
C1081      C1088   1.434       .  S
C1082      C1083   1.424       .  A
C1083      C1084   1.456       .  A
C1083      C1086   1.443       .  S
C1084      C1087   1.441       .  S
C1086      N1091   1.158       .  T
C1087      N1089   1.156       .  T
C1093      C1094   1.430       .  A
C1093      C1098   1.442       .  A
C1094      C1095   1.437       .  A
C1094      C1099   1.444       .  S
C1095      C1096   1.420       .  A
C1095      C1102   1.447       .  S
C1096      C1097   1.412       .  A
C1097      C1098   1.453       .  A
C1097      C1100   1.449       .  S
C1098      C1101   1.440       .  S
C1099      N1106   1.157       .  T
C1100      N1105   1.157       .  T
C1102      N1104   1.157       .  T
C1107      C1108   1.397       .  A
C1107      C1112   1.432       .  A
C1108      C1109   1.439       .  A
C1108      C1113   1.449       .  S
C1109      C1110   1.464       .  A
C1109      C1116   1.447       .  S
C1110      C1111   1.428       .  A
C1111      C1112   1.445       .  A
C1111      C1114   1.443       .  S
C1112      C1115   1.453       .  S
C1113      N1120   1.157       .  T
C1114      N1119   1.157       .  T
C1115      N1117   1.158       .  T
C1116      N1118   1.157       .  T
C1121      C1122   1.396       .  A
C1121      C1126   1.403       .  A
C1122      C1123   1.442       .  A
C1122      C1127   1.452       .  S
C1123      C1124   1.476       .  A
C1123      C1130   1.441       .  S
C1124      C1125   1.449       .  A
C1125      C1126   1.394       .  A
C1125      C1128   1.434       .  S
C1126      C1129   1.455       .  S
C1127      N1134   1.158       .  T
C1128      N1133   1.157       .  T
C1129      N1131   1.157       .  T
C1130      N1132   1.156       .  T
C1135      C1136   1.361       .  A
C1135      C1140   1.470       .  A
C1136      C1137   1.400       .  A
C1136      C1141   1.427   1_556  S
C1137      C1138   1.380       .  A
C1137      C1144   1.442       .  S
C1138      C1139   1.453       .  A
C1139      C1140   1.489       .  A
C1139      C1142   1.440       .  S
C1140      C1143   1.440       .  S
C1141      N1148   1.156       .  T
C1142      N1147   1.156       .  T
C1143      N1145   1.158       .  T
C1144      N1146   1.155       .  T
C1149      C1150   1.417       .  A
C1149      C1154   1.427       .  A
C1150      C1151   1.428       .  A
C1150      C1155   1.443       .  S
C1151      C1152   1.428       .  A
C1151      C1158   1.450       .  S
C1152      C1153   1.433       .  A
C1153      C1154   1.455       .  A
C1153      C1156   1.448       .  S
C1154      C1157   1.448       .  S
C1155      N1162   1.157       .  T
C1156      N1161   1.158       .  T
C1158      N1160   1.157       .  T
C1163      C1164   1.434       .  A
C1163      C1168   1.419       .  A
C1164      C1165   1.450       .  A
C1164      C1169   1.451       .  S
C1165      C1166   1.422       .  A
C1165      C1172   1.441   1_556  S
C1166      C1167   1.450       .  A
C1167      C1168   1.448       .  A
C1167      C1170   1.449       .  S
C1168      C1171   1.447       .  S
C1169      N1176   1.158       .  T
C1170      N1175   1.158       .  T
C1171      N1173   1.158       .  T
C1172      N1174   1.157       .  T
C1177      C1178   1.419       .  A
C1177      C1182   1.419   1_455  A
C1178      C1179   1.424   1_455  A
C1178      C1183   1.451       .  S
C1179      C1180   1.422       .  A
C1179      C1186   1.451       .  S
C1180      C1181   1.423       .  A
C1181      C1182   1.428       .  A
C1181      C1184   1.449       .  S
C1182      C1185   1.449   1_655  S
C1183      N1190   1.157       .  T
C1184      N1189   1.158       .  T
C1185      N1187   1.157       .  T
C1186      N1188   1.158       .  T
C1191      C1192   1.427       .  A
C1191      C1196   1.425       .  A
C1192      C1193   1.427   1_545  A
C1192      C1197   1.452       .  S
C1193      C1194   1.424       .  A
C1193      C1200   1.451       .  S
C1194      C1195   1.425       .  A
C1195      C1196   1.440   1_565  A
C1195      C1198   1.448       .  S
C1196      C1199   1.448       .  S
C1197      N1204   1.158       .  T
C1198      N1203   1.158       .  T
C1199      N1201   1.157       .  T
C1200      N1202   1.157       .  T
C1205      C1206   1.412       .  A
C1205      C1210   1.421       .  A
C1206      C1207   1.432       .  A
C1206      C1211   1.444       .  S
C1207      C1208   1.427       .  A
C1207      C1214   1.450       .  S
C1208      C1209   1.428       .  A
C1209      C1210   1.441       .  A
C1209      C1212   1.448       .  S
C1210      C1213   1.447       .  S
C1211      N1218   1.156       .  T
C1212      N1217   1.158       .  T
C1213      N1215   1.157       .  T
C1214      N1216   1.158       .  T
C1219      C1220   1.422       .  A
C1219      C1224   1.419       .  A
C1220      C1221   1.435   1_655  A
C1220      C1225   1.451       .  S
C1221      C1222   1.426       .  A
C1221      C1228   1.449       .  S
C1222      C1223   1.425   1_455  A
C1223      C1224   1.427       .  A
C1223      C1226   1.451   1_655  S
C1224      C1227   1.450       .  S
C1225      N1232   1.158       .  T
C1226      N1231   1.157       .  T
C1227      N1229   1.157       .  T
C1228      N1230   1.158       .  T
C1233      C1234   1.409       .  A
C1233      C1238   1.410       .  A
C1234      C1235   1.405       .  A
C1234      C1239   1.449       .  S
C1235      C1236   1.412       .  A
C1235      C1242   1.450       .  S
C1236      C1237   1.404       .  A
C1237      C1238   1.402       .  A
C1237      C1240   1.449       .  S
C1238      C1241   1.449       .  S
C1239      N1246   1.157       .  T
C1240      N1245   1.157       .  T
C1241      N1243   1.157       .  T
C1242      N1244   1.158       .  T
C1247      C1248   1.428       .  A
C1247      C1252   1.429       .  A
C1248      C1249   1.436       .  A
C1248      C1253   1.449       .  S
C1249      C1250   1.421       .  A
C1249      C1256   1.450       .  S
C1250      C1251   1.418       .  A
C1251      C1252   1.432       .  A
C1251      C1254   1.450       .  S
C1252      C1255   1.450       .  S
C1253      N1260   1.158       .  T
C1254      N1259   1.157       .  T
C1255      N1257   1.157       .  T
C1256      N1258   1.157       .  T
C1261      C1262   1.420       .  A
C1261      C1266   1.410       .  A
C1262      C1263   1.444       .  A
C1262      C1267   1.448       .  S
C1263      C1264   1.429       .  A
C1263      C1270   1.446       .  S
C1264      C1265   1.428       .  A
C1265      C1266   1.426       .  A
C1265      C1268   1.453       .  S
C1266      C1269   1.435       .  S
C1267      N1274   1.157       .  T
C1268      N1273   1.158       .  T
C1269      N1271   1.151       .  T
C1270      N1272   1.158       .  T
C1275      C1276   1.421       .  A
C1275      C1280   1.420       .  A
C1276      C1277   1.431   1_565  A
C1276      C1281   1.449       .  S
C1277      C1278   1.417       .  A
C1277      C1284   1.449       .  S
C1278      C1279   1.415       .  A
C1279      C1280   1.427   1_545  A
C1279      C1282   1.449       .  S
C1280      C1283   1.448       .  S
C1281      N1288   1.158   1_556  T
C1282      N1287   1.157       .  T
C1283      N1285   1.157       .  T
C1284      N1286   1.158   1_556  T
C1289      C1290   1.394       .  A
C1289      C1294   1.397       .  A
C1290      C1291   1.398       .  A
C1290      C1295   1.449       .  S
C1291      C1292   1.419       .  A
C1291      C1298   1.451       .  S
C1292      C1293   1.424       .  A
C1293      C1294   1.403       .  A
C1293      C1296   1.452       .  S
C1294      C1297   1.447       .  S
C1295      N1302   1.157       .  T
C1296      N1301   1.158       .  T
C1297      N1299   1.157       .  T
C1298      N1300   1.157       .  T
C1303      C1304   1.424       .  A
C1303      C1308   1.420       .  A
C1304      C1305   1.430       .  A
C1304      C1309   1.449       .  S
C1305      C1306   1.417       .  A
C1305      C1312   1.450       .  S
C1306      C1307   1.420       .  A
C1307      C1308   1.426       .  A
C1307      C1310   1.452       .  S
C1308      C1311   1.450       .  S
C1309      N1316   1.157       .  T
C1310      N1315   1.158       .  T
C1311      N1313   1.157       .  T
C1312      N1314   1.158       .  T
C1317      C1318   1.410       .  A
C1317      C1322   1.421       .  A
C1318      C1319   1.401       .  A
C1318      C1323   1.449       .  S
C1319      C1320   1.405       .  A
C1319      C1326   1.449       .  S
C1320      C1321   1.396       .  A
C1321      C1322   1.402       .  A
C1321      C1324   1.447       .  S
C1322      C1325   1.450       .  S
C1323      N1330   1.157       .  T
C1324      N1329   1.157       .  T
C1325      N1327   1.157       .  T
C1326      N1328   1.157       .  T
C1331      C1332   1.421       .  A
C1331      C1336   1.429       .  A
C1332      C1333   1.433       .  A
C1332      C1337   1.445       .  S
C1333      C1334   1.430       .  A
C1333      C1340   1.453       .  S
C1334      C1335   1.427       .  A
C1335      C1336   1.446       .  A
C1335      C1338   1.448       .  S
C1336      C1339   1.448       .  S
C1337      N1344   1.155       .  T
C1338      N1343   1.158       .  T
C1339      N1341   1.157       .  T
C1340      N1342   1.158       .  T
