geometry optimzed in LAMMPS
_audit_creation_date              2020-11-30 
_audit_creation_method            'lammps2cif' 
_symmetry_space_group_name_H-M    'P1' 
_symmetry_Int_Tables_number       1 
_symmetry_cell_setting            triclinic 
loop_ 
_symmetry_equiv_pos_as_xyz 
  x,y,z 
_cell_length_a                    42.45627046390409 
_cell_length_b                    41.935401516417656 
_cell_length_c                    39.21565165292154 
_cell_angle_alpha                 89.75046719472698 
_cell_angle_beta                  90.46040902113606 
_cell_angle_gamma                 89.11802103349338 
loop_ 
_atom_site_label 
_atom_site_type_symbol 
_atom_site_fract_x 
_atom_site_fract_y 
_atom_site_fract_z 
_atom_site_charge 
O1          O  0.41539880  0.49609705  0.43949646    -0.74950
O2          O  0.40821815  0.04533758  0.46302390    -0.53850
C3          C  0.39886664  0.02140014  0.44534119     0.78780
O4          O  0.49202679  0.42294705  0.56129671    -0.59550
O5          O  0.04035661  0.41695195  0.53657785    -0.52580
C6          C  0.01722692  0.40690774  0.55458599     0.70800
O7          O  0.41554388  0.49678587  0.55959222    -0.74110
O8          O  0.40844109  0.04604660  0.53542384    -0.54670
C9          C  0.39915904  0.02222884  0.55337867     0.76800
O10         O  0.49472303  0.42567178  0.43573049    -0.59250
O11         O  0.04126731  0.41724608  0.46404121    -0.52370
C12         C  0.01953490  0.40889882  0.44279441     0.73390
Zr13       Zr  0.46841756  0.47546391  0.44940044     2.54710
O14         O  0.43095580  0.43244268  0.44349561    -0.79820
O15         O  0.47133373  0.48174250  0.38776792    -0.93230
Zr16       Zr  0.46814086  0.47494585  0.55029186     2.64680
O17         O  0.42690533  0.43616542  0.55976653    -0.98190
O18         O  0.47481307  0.48132424  0.61158284    -0.80250
O19         O  0.44567165  0.49613988  0.49954486    -0.83610
O20         O  0.49017922  0.45329052  0.49996160    -2.18320
O21         O  0.08206414  0.01814590  0.43668756    -0.67000
O22         O  0.09182587  0.47121099  0.46470009    -0.51560
C23         C  0.09974229  0.49394709  0.44433100     0.71770
O24         O  0.00668963  0.09212764  0.56050124    -0.59900
O25         O  0.45865492  0.09918940  0.53526965    -0.51880
C26         C  0.48141302  0.10840303  0.55459101     0.73580
O27         O  0.08113183  0.01803581  0.56553418    -0.71300
O28         O  0.09142265  0.47107242  0.53909594    -0.49980
C29         C  0.09890705  0.49379015  0.55978202     0.74960
O30         O  0.00824489  0.09488356  0.44088689    -0.66630
O31         O  0.45904953  0.09936100  0.46377893    -0.53830
C32         C  0.48243942  0.11025781  0.44687556     0.73340
Zr33       Zr  0.03104920  0.04183688  0.44952467     2.77540
O34         O  0.06989713  0.08356771  0.44294608    -0.97380
O35         O  0.02418492  0.03783125  0.38801723    -0.78200
Zr36       Zr  0.03076203  0.04098840  0.55014737     2.70070
O37         O  0.07039108  0.08211685  0.55446710    -0.79450
O38         O  0.02442017  0.03807818  0.61172902    -0.98530
Zr39       Zr  0.45445198  0.05206466  0.49935197     2.21500
Zr40       Zr  0.04550999  0.46430686  0.50073149     2.11130
O41         O  0.05391506  0.02053603  0.50017914    -2.47220
O42         O  0.00917723  0.06330961  0.49973955    -0.79240
O43         O  0.02310920  0.48601282  0.44904856    -0.71430
O44         O  0.47627010  0.03055535  0.55115155    -2.32390
O45         O  0.47644222  0.03116182  0.44785927    -2.28600
O46         O  0.02289381  0.48532406  0.55187277    -0.73190
H47         H  0.48645444  0.43066077  0.49939548     0.78800
H48         H  0.46653131  0.04011996  0.57088804     0.79890
H49         H  0.07609682  0.02526347  0.50066344     0.82120
H50         H  0.46654962  0.04076259  0.42797172     0.79720
H51         H  0.45687709  0.49515650  0.61847043     0.42760
H52         H  0.04024903  0.02200275  0.61951258     0.41730
H53         H  0.07413196  0.08866842  0.53056791     0.41410
H54         H  0.08668542  0.07831692  0.45981584     0.39340
H55         H  0.03329011  0.01668311  0.38220738     0.42470
H56         H  0.45460377  0.49759926  0.38194816     0.37260
H57         H  0.42375621  0.42835242  0.46704898     0.43370
H58         H  0.42833485  0.42147223  0.54015105     0.39790
H59         H  0.07962412  0.07970109  0.42044584     0.44710
H60         H  0.46345135  0.46136983  0.37860926     0.43430
H61         H  0.43389176  0.42330653  0.57974415     0.43570
H62         H  0.03241558  0.05863898  0.62024952     0.43920
C63         C  0.48945573  0.23128270  0.37787235     0.03470
C64         C  0.49608226  0.26080739  0.39341172    -0.12670
C65         C  0.50467098  0.28757326  0.37370884     0.00980
C66         C  0.50627112  0.28403640  0.33811293    -0.11200
C67         C  0.49734899  0.25568084  0.32233493     0.03470
C68         C  0.49042125  0.22906500  0.34217397    -0.10620
H69         H  0.49430165  0.26287338  0.42084115     0.09060
H70         H  0.51425346  0.30333838  0.32215896     0.06590
H71         H  0.48572431  0.20668506  0.32958870     0.06440
C72         C  0.22097840  0.00264629  0.37869437     0.03470
C73         C  0.24904106  0.00733023  0.39687927    -0.12670
C74         C  0.27718982  0.01306469  0.37952820     0.00980
C75         C  0.27698314  0.01447790  0.34376094    -0.11200
C76         C  0.24887409  0.01027294  0.32522595     0.03470
C77         C  0.22096267  0.00414354  0.34298242    -0.10620
H78         H  0.24891908  0.00678090  0.42451685     0.09060
H79         H  0.29886987  0.01816642  0.33037859     0.06590
H80         H  0.19900880  0.00138855  0.32908133     0.06440
C81         C  0.22314733  0.99896046  0.62398908     0.03470
C82         C  0.25034246  0.00385204  0.60460234    -0.12670
C83         C  0.27923733  0.01090303  0.62068805     0.00980
C84         C  0.28047973  0.01324166  0.65650458    -0.11200
C85         C  0.25350243  0.00816252  0.67616743     0.03470
C86         C  0.22499534  0.00133643  0.65961904    -0.10620
H87         H  0.24875992  0.00326121  0.57702516     0.09060
H88         H  0.30261507  0.01836043  0.66914051     0.06590
H89         H  0.20381760  0.99857742  0.67454232     0.06440
C90         C  0.49011314  0.22986133  0.62289966     0.03470
C91         C  0.48614599  0.23203513  0.65825982    -0.12670
C92         C  0.49171156  0.26059858  0.67531792     0.00980
C93         C  0.50026783  0.28770173  0.65684861    -0.11200
C94         C  0.50397435  0.28605554  0.62131628     0.03470
C95         C  0.49872069  0.25706483  0.60446288    -0.10620
H96         H  0.47909064  0.21128796  0.67273753     0.09060
H97         H  0.50389182  0.30998900  0.67009651     0.06590
H98         H  0.50184008  0.25558912  0.57710691     0.06440
C99         C  0.25156593  0.49234593  0.12081088     0.03470
C100        C  0.25378377  0.48992110  0.15641725    -0.12670
C101        C  0.24447579  0.01555659  0.17711632     0.00980
C102        C  0.23377993  0.04399890  0.16163618    -0.11200
C103        C  0.23413672  0.04798738  0.12598600     0.03470
C104        C  0.24243065  0.02157218  0.10566796    -0.10620
H105        H  0.26163962  0.46762635  0.16793900     0.09060
H106        H  0.22524900  0.06321175  0.17762774     0.06590
H107        H  0.24161555  0.02349553  0.07812130     0.06440
O108        O  0.23015554  0.35504912  0.93995629    -0.74950
O109        O  0.27863335  0.35916707  0.96483241    -0.53850
C110        C  0.25556088  0.37021811  0.94651534     0.78780
O111        O  0.15676049  0.28086674  0.06478671    -0.59550
O112        O  0.14650961  0.23491821  0.03615476    -0.52580
C113        C  0.13900177  0.25740546  0.05703311     0.70800
O114        O  0.23128045  0.35421752  0.06053956    -0.74110
O115        O  0.27931577  0.35878618  0.03560188    -0.54670
C116        C  0.25644241  0.36967748  0.05387183     0.76800
O117        O  0.15462996  0.28286644  0.93608004    -0.59250
O118        O  0.14555175  0.23567212  0.96298949    -0.52370
C119        C  0.13730407  0.25881027  0.94286634     0.73390
Zr120      Zr  0.20594646  0.30400397  0.94982244     2.54710
O121        O  0.16630957  0.34638370  0.94526633    -0.79820
O122        O  0.21050017  0.30086572  0.88807679    -0.93230
Zr123      Zr  0.20742800  0.30284144  0.05064913     2.64680
O124        O  0.16889318  0.34611197  0.05651062    -0.98190
O125        O  0.21416292  0.29790611  0.11217139    -0.80250
O126        O  0.22865986  0.32433864  0.00027517    -0.83610
O127        O  0.18374453  0.28330094  0.00020874    -2.18320
O128        O  0.24252720  0.18538114  0.93505118    -0.67000
O129        O  0.19563701  0.17982519  0.96261844    -0.51560
C130        C  0.21764896  0.16987919  0.94264739     0.71770
O131        O  0.32091825  0.25355131  0.06161880    -0.59900
O132        O  0.33032104  0.30103720  0.03579027    -0.51880
C133        C  0.33863528  0.27722228  0.05508900     0.73580
O134        O  0.24207073  0.18642567  0.06525012    -0.71300
O135        O  0.19585710  0.17942352  0.03660015    -0.49980
C136        C  0.21724196  0.17052121  0.05842289     0.74960
O137        O  0.32072783  0.25502311  0.93766859    -0.66630
O138        O  0.32850715  0.30337492  0.96291906    -0.53830
C139        C  0.33723908  0.27971542  0.94423499     0.73340
Zr140      Zr  0.26807409  0.23543510  0.94792691     2.77540
O141        O  0.30750864  0.19345836  0.93925772    -0.97380
O142        O  0.26206210  0.24369966  0.88672942    -0.78200
Zr143      Zr  0.26933658  0.23378355  0.04844795     2.70070
O144        O  0.30418855  0.18768629  0.04212062    -0.79450
O145        O  0.27244569  0.23448105  0.11044161    -0.98530
Zr146      Zr  0.28340472  0.31114035  0.99997946     2.21500
Zr147      Zr  0.19194230  0.22671900  0.99933248     2.11130
O148        O  0.24674441  0.21337223  0.99825722    -2.47220
O149        O  0.29160730  0.25490520  0.99848884    -0.79240
O150        O  0.21345490  0.24799548  0.94781847    -0.71430
O151        O  0.26179045  0.28975336  0.05121012    -2.32390
O152        O  0.26047076  0.29148076  0.94816683    -2.28600
O153        O  0.21502622  0.24678649  0.05066428    -0.73190
H154        H  0.16158527  0.28880531  0.00039265     0.78800
H155        H  0.27199982  0.29839268  0.07116805     0.79890
H156        H  0.25003463  0.19055359  0.99847135     0.82120
H157        H  0.27008185  0.30103346  0.92842796     0.79720
H158        H  0.23015134  0.31393113  0.11815242     0.42760
H159        H  0.25036871  0.23237173  0.11797569     0.41730
H160        H  0.31554029  0.19170774  0.02060679     0.41490
H161        H  0.30238193  0.17659861  0.95597244     0.39340
H162        H  0.24141283  0.23434569  0.88103920     0.42470
H163        H  0.22796275  0.31526354  0.88233421     0.37260
H164        H  0.16383245  0.35415125  0.96891944     0.43370
H165        H  0.15161606  0.34090538  0.04046339     0.39790
H166        H  0.30241275  0.18418427  0.91673741     0.44710
H167        H  0.19136242  0.31201622  0.87926995     0.43430
H168        H  0.15981788  0.34326584  0.07948462     0.43570
H169        H  0.28267339  0.21385935  0.11665419     0.43920
C170        C  0.46091720  0.27317615  0.12220929     0.03470
C171        C  0.46114512  0.26731890  0.15749055    -0.12670
C172        C  0.48964269  0.26186691  0.17527128     0.00980
C173        C  0.01789405  0.26208901  0.15696898    -0.11200
C174        C  0.01764383  0.26609951  0.12157097     0.03470
C175        C  0.48925376  0.27226986  0.10420662    -0.10620
H176        H  0.43894200  0.26647997  0.17087457     0.09060
H177        H  0.04030626  0.25931283  0.17011395     0.06590
H178        H  0.48911963  0.27535031  0.07674715     0.06440
C179        C  0.25177131  0.49301932  0.87919852     0.03470
C180        C  0.25738487  0.49302531  0.84413279    -0.12670
C181        C  0.25074748  0.02027721  0.82408305     0.00980
C182        C  0.23994351  0.04832391  0.84037818    -0.11200
C183        C  0.23546119  0.04895845  0.87599690     0.03470
C184        C  0.24099011  0.02090920  0.89493022    -0.10620
H185        H  0.26564721  0.47119286  0.83226115     0.09060
H186        H  0.23491656  0.06954676  0.82544004     0.06590
H187        H  0.23652501  0.02057109  0.92210987     0.06440
C188        C  0.45724439  0.26812833  0.87752666     0.03470
C189        C  0.45607421  0.26301030  0.84214226    -0.12670
C190        C  0.48379545  0.26155125  0.82284034     0.00980
C191        C  0.01286044  0.26215830  0.84029178    -0.11200
C192        C  0.01464731  0.26609265  0.87571692     0.03470
C193        C  0.48662643  0.26984582  0.89411239    -0.10620
H194        H  0.43339865  0.26001758  0.82991223     0.09060
H195        H  0.03452368  0.25967975  0.82627951     0.06590
H196        H  0.48769140  0.27428516  0.92128668     0.06440
C197        C  0.21688671  0.13709590  0.92939358     0.00190
C198        C  0.19846088  0.12968455  0.90074797    -0.11680
C199        C  0.20308996  0.10063752  0.88346481     0.02430
C200        C  0.22712862  0.07900374  0.89442147     0.00100
C201        C  0.24432423  0.08614559  0.92413257    -0.11620
C202        C  0.23914357  0.11453723  0.94174324     0.02310
H203        H  0.18124017  0.14697144  0.89124450     0.15290
H204        H  0.26266038  0.06986055  0.93321213     0.15290
C205        C  0.25759111  0.12039215  0.97216562     0.36940
C206        C  0.18259806  0.09347926  0.85507355     0.36850
N207        N  0.27223481  0.12492510  0.99663823    -0.43400
N208        N  0.16610447  0.08771512  0.83235779    -0.43400
C209        C  0.25365618  0.46281889  0.89875304     0.00190
C210        C  0.28274119  0.44686419  0.90332644    -0.11680
C211        C  0.28457402  0.41725565  0.92026622     0.02430
C212        C  0.25674262  0.40297610  0.93212977     0.00100
C213        C  0.22792231  0.41967280  0.92826232    -0.11620
C214        C  0.22616345  0.44915599  0.91181315     0.02310
H215        H  0.30395501  0.45746266  0.89341782     0.15290
H216        H  0.20635589  0.40936774  0.93766634     0.15290
C217        C  0.19555616  0.46421193  0.90725158     0.36940
C218        C  0.31500499  0.40182004  0.92414336     0.36850
N219        N  0.17106388  0.47628780  0.90357677    -0.43400
N220        N  0.33951612  0.38969711  0.92745780    -0.43400
C221        C  0.37069561  0.27614839  0.07121564     0.00190
C222        C  0.38916302  0.30380392  0.07212980    -0.11680
C223        C  0.41889478  0.30354365  0.08828246     0.02430
C224        C  0.43053839  0.27530231  0.10376171     0.00100
C225        C  0.41268587  0.24778808  0.10243611    -0.11620
C226        C  0.38331352  0.24769807  0.08645791     0.02310
H227        H  0.38022178  0.32579400  0.06079076     0.15290
H228        H  0.42191245  0.22601644  0.11413663     0.15290
C229        C  0.36747939  0.21746575  0.08654672     0.36940
C230        C  0.43658432  0.33261978  0.08969621     0.36850
N231        N  0.35565941  0.19280948  0.08749087    -0.43400
N232        N  0.45078381  0.35592673  0.09095242    -0.43400
C233        C  0.10719885  0.25822734  0.07242637     0.00190
C234        C  0.09407156  0.28836728  0.08033382    -0.11680
C235        C  0.06470344  0.29131771  0.09572626     0.02430
C236        C  0.04753090  0.26386129  0.10304601     0.00100
C237        C  0.06012271  0.23369153  0.09505609    -0.11620
C238        C  0.08982609  0.23060841  0.07989559     0.02310
H239        H  0.10687084  0.30990313  0.07467470     0.15290
H240        H  0.04698379  0.21251862  0.10138975     0.15290
C241        C  0.10234921  0.19895504  0.07382484     0.36940
C242        C  0.05309872  0.32266527  0.10491447     0.36850
N243        N  0.11230328  0.17355226  0.06891944    -0.43400
N244        N  0.04383622  0.34771984  0.11251218    -0.43400
C245        C  0.42747469  0.27257088  0.89671101     0.00190
C246        C  0.40477106  0.29460162  0.88429895    -0.11680
C247        C  0.37552347  0.29820398  0.90018595     0.02430
C248        C  0.36886086  0.27997611  0.92936663     0.00100
C249        C  0.39158453  0.25839948  0.94222288    -0.11620
C250        C  0.42071484  0.25448360  0.92617850     0.02310
H251        H  0.40967672  0.30857405  0.86168457     0.15290
H252        H  0.38611155  0.24381695  0.96425916     0.15290
C253        C  0.44233636  0.23038902  0.93924191     0.36940
C254        C  0.35199880  0.31908694  0.88485829     0.36850
N255        N  0.45965952  0.21107800  0.94971630    -0.43400
N256        N  0.33303024  0.33553752  0.87233530    -0.43400
C257        C  0.04590272  0.26516363  0.89337559     0.00190
C258        C  0.04977770  0.24659259  0.92311855    -0.11680
C259        C  0.07913384  0.24368847  0.93966975     0.02430
C260        C  0.10571484  0.25898328  0.92599574     0.00100
C261        C  0.10165576  0.27757377  0.89627017    -0.11620
C262        C  0.07228534  0.28129011  0.88039997     0.02310
H263        H  0.02977377  0.23413117  0.93346404     0.15290
H264        H  0.12153789  0.28991855  0.88547709     0.15290
C265        C  0.06997842  0.30288748  0.85162991     0.36940
C266        C  0.08067506  0.22602758  0.97127857     0.36850
N267        N  0.06834862  0.32002225  0.82844396    -0.43400
N268        N  0.08146318  0.21189660  0.99667067    -0.43400
C269        C  0.22643682  0.07986799  0.11029468     0.00190
C270        C  0.20811255  0.08203757  0.08013095    -0.11680
C271        C  0.20282441  0.11148928  0.06336325     0.02430
C272        C  0.21516918  0.13970923  0.07737756     0.00100
C273        C  0.23152150  0.13760498  0.10865455    -0.11620
C274        C  0.23822183  0.10838610  0.12435101     0.02310
H275        H  0.19863175  0.06055174  0.06903145     0.15290
H276        H  0.24119374  0.15895233  0.11995866     0.15290
C277        C  0.25986415  0.10866471  0.15298991     0.36940
C278        C  0.18657923  0.11162829  0.03090011     0.36850
N279        N  0.27731508  0.10934241  0.17578871    -0.43400
N280        N  0.17363805  0.11159895  0.00481311    -0.43400
C281        C  0.25747866  0.40264169  0.06783282     0.00190
C282        C  0.22861046  0.41931224  0.07092525    -0.11680
C283        C  0.22673180  0.44894992  0.08687934     0.02430
C284        C  0.25413314  0.46295364  0.10007641     0.00100
C285        C  0.28328724  0.44703054  0.09627783    -0.11620
C286        C  0.28522641  0.41716843  0.07999020     0.02310
H287        H  0.20707170  0.40878348  0.06147078     0.15290
H288        H  0.30439525  0.45760461  0.10673440     0.15290
C289        C  0.31556391  0.40135450  0.07772031     0.36940
C290        C  0.19603718  0.46366865  0.09129687     0.36850
N291        N  0.33991052  0.38870946  0.07586043    -0.43400
N292        N  0.17150007  0.47547208  0.09505301    -0.43400
C293        C  0.48962855  0.26125960  0.71278749     0.00190
C294        C  0.46434696  0.27712110  0.72827419    -0.11680
C295        C  0.46136016  0.27730970  0.76387072     0.02430
C296        C  0.48331847  0.25988431  0.78461717     0.00100
C297        C  0.00780498  0.24292496  0.76829003    -0.11620
C298        C  0.01200221  0.24492914  0.73314066     0.02310
H299        H  0.44724101  0.28992755  0.71248227     0.15290
H300        H  0.02466278  0.22881827  0.78301267     0.15290
C301        C  0.04107545  0.23278188  0.71903274     0.36940
C302        C  0.43634780  0.29682884  0.77780358     0.36850
N303        N  0.06501228  0.22412216  0.70830320    -0.43400
N304        N  0.41604029  0.31242098  0.78855732    -0.43400
C305        C  0.25454109  0.01052256  0.71406434     0.00190
C306        C  0.26668877  0.03793265  0.72958109    -0.11680
C307        C  0.26613917  0.04170977  0.76519308     0.02430
C308        C  0.25270242  0.01791477  0.78604840     0.00100
C309        C  0.24102588  0.49035761  0.77027958    -0.11620
C310        C  0.24239203  0.48623421  0.73497034     0.02310
H311        H  0.27637691  0.05661358  0.71378665     0.15290
H312        H  0.23061274  0.47176922  0.78561850     0.15290
C313        C  0.23215776  0.45627436  0.72096701     0.36940
C314        C  0.28038371  0.06973461  0.77949495     0.36850
N315        N  0.22411593  0.43223512  0.70972314    -0.43400
N316        N  0.29174034  0.09227849  0.79087410    -0.43400
C317        C  0.24854183  0.01173768  0.28729028     0.00190
C318        C  0.23420934  0.48707685  0.26895748    -0.11680
C319        C  0.23265849  0.48767928  0.23324766     0.02430
C320        C  0.24604382  0.01319595  0.21501833     0.00100
C321        C  0.26043154  0.03781470  0.23338414    -0.11620
C322        C  0.26154354  0.03748049  0.26908439     0.02310
H323        H  0.22397079  0.46729184  0.28264660     0.15290
H324        H  0.27066472  0.05760172  0.21974624     0.15290
C325        C  0.27481844  0.06460228  0.28629895     0.36940
C326        C  0.21595065  0.46255224  0.21614869     0.36850
N327        N  0.28542141  0.08637773  0.30003277    -0.43400
N328        N  0.20258224  0.44239966  0.20243641    -0.43400
C329        C  0.49342450  0.25481116  0.28489900     0.00190
C330        C  0.01249523  0.23452499  0.26538223    -0.11680
C331        C  0.01038357  0.23496929  0.22969559     0.02430
C332        C  0.49000680  0.25730198  0.21300377     0.00100
C333        C  0.46974035  0.27621985  0.23293097    -0.11620
C334        C  0.47055745  0.27426108  0.26846192     0.02310
H335        H  0.02900835  0.21833112  0.27805615     0.15290
H336        H  0.45321457  0.29276071  0.22084468     0.15290
C337        C  0.44633666  0.29071868  0.28747251     0.36940
C338        C  0.02833471  0.21135270  0.21109214     0.36850
N339        N  0.42637836  0.30319510  0.30256726    -0.43400
N340        N  0.04261475  0.19235167  0.19617561    -0.43400
C341        C  0.01778421  0.37389438  0.56735904     0.00190
C342        C  0.03995817  0.36421028  0.59210005    -0.11680
C343        C  0.03675857  0.33496115  0.60919215     0.02430
C344        C  0.51099183  0.31517496  0.60144357     0.00100
C345        C  0.49016714  0.32409035  0.57508281    -0.11620
C346        C  0.49336304  0.35310003  0.55805800     0.02310
H347        H  0.05890108  0.38002906  0.59907187     0.15290
H348        H  0.47058654  0.30886551  0.56862398     0.15290
C349        C  0.47101486  0.36116983  0.53127593     0.36940
C350        C  0.06011915  0.32574621  0.63445323     0.36850
N351        N  0.45316324  0.36739314  0.50971414    -0.43400
N352        N  0.07887535  0.31828905  0.65464980    -0.43400
C353        C  0.47979135  0.13946595  0.57243216     0.00190
C354        C  0.99819092  0.14214546  0.60219089    -0.11680
C355        C  0.00237423  0.17122039  0.61815992     0.02430
C356        C  0.48652304  0.19870596  0.60570522     0.00100
C357        C  0.46719235  0.19619579  0.57650289    -0.11620
C358        C  0.46387992  0.16687569  0.55962830     0.02310
H359        H  0.01059270  0.12142150  0.61259044     0.15290
H360        H  0.45496100  0.21723024  0.56667682     0.15290
C361        C  0.44530656  0.16599072  0.52868236     0.36940
C362        C  0.02494081  0.17201622  0.64584136     0.36850
N363        N  0.43042411  0.16533633  0.50384751    -0.43400
N364        N  0.04336730  0.17150201  0.66770990    -0.43400
C365        C  0.02161738  0.37802253  0.42433729     0.00190
C366        C  0.50783019  0.37725028  0.39176918    -0.11680
C367        C  0.50190266  0.34866876  0.37510963     0.02430
C368        C  0.51142266  0.31914741  0.39013415     0.00100
C369        C  0.02712502  0.32003413  0.42204363    -0.11620
C370        C  0.03188788  0.34899261  0.43935199     0.02310
H371        H  0.49993426  0.39939503  0.37978721     0.15290
H372        H  0.03520647  0.29798181  0.43394297     0.15290
C373        C  0.04563553  0.34793019  0.47310225     0.36940
C374        C  0.48410054  0.35137634  0.34371213     0.36850
N375        N  0.05668946  0.34681899  0.50015631    -0.43400
N376        N  0.47020785  0.35502655  0.31846800    -0.43400
C377        C  0.48354165  0.20217697  0.39878026     0.00190
C378        C  0.00383518  0.19523364  0.42641577    -0.11680
C379        C  0.00237100  0.16606246  0.44374479     0.02430
C380        C  0.48041805  0.14307675  0.43345153     0.00100
C381        C  0.45871211  0.15059189  0.40750964    -0.11620
C382        C  0.45992448  0.17989918  0.39024203     0.02310
H383        H  0.02185426  0.21203266  0.43360212     0.15290
H384        H  0.44164525  0.13302084  0.39977276     0.15290
C385        C  0.43676618  0.18621477  0.36379267     0.36940
C386        C  0.02380051  0.16002899  0.47192502     0.36850
N387        N  0.41830500  0.19103706  0.34243897    -0.43400
N388        N  0.04076563  0.15517986  0.49466944    -0.43400
C389        C  0.13029312  0.49359608  0.57782166     0.00190
C390        C  0.15321066  0.46998477  0.57048333    -0.11680
C391        C  0.18352587  0.47075283  0.58541055     0.02430
C392        C  0.19168570  0.99589717  0.60747599     0.00100
C393        C  0.16885564  0.01891512  0.61536630    -0.11620
C394        C  0.13854650  0.01789814  0.60156484     0.02310
H395        H  0.14751871  0.45082987  0.55312458     0.15290
H396        H  0.17482355  0.03803311  0.63274206     0.15290
C397        C  0.11692234  0.04242568  0.61319994     0.36940
C398        C  0.20510128  0.44459385  0.57919833     0.36850
N399        N  0.10007730  0.06225826  0.62299167    -0.43400
N400        N  0.22190094  0.42311852  0.57446218    -0.43400
C401        C  0.36696750  0.02271568  0.56737028     0.00190
C402        C  0.34794099  0.99646437  0.56049336    -0.11680
C403        C  0.31899309  0.49272495  0.57662050     0.02430
C404        C  0.30838922  0.01564413  0.60040420     0.00100
C405        C  0.32706608  0.04259502  0.60646384    -0.11620
C406        C  0.35615445  0.04630696  0.59011469     0.02310
H407        H  0.35629328  0.47815195  0.54314221     0.15290
H408        H  0.31923335  0.06041776  0.62460398     0.15290
C409        C  0.37536437  0.07328160  0.59869222     0.36940
C410        C  0.30194517  0.46392325  0.56985991     0.36850
N411        N  0.39088224  0.09480969  0.60558629    -0.43400
N412        N  0.28872353  0.44063470  0.56405904    -0.43400
C413        C  0.13183629  0.49431312  0.42928873     0.00190
C414        C  0.14500488  0.02436409  0.42278684    -0.11680
C415        C  0.17406596  0.02723815  0.40684861     0.02430
C416        C  0.19091523  0.99974058  0.39705671     0.00100
C417        C  0.17852736  0.46955599  0.40408631    -0.11620
C418        C  0.14920932  0.46660105  0.42025974     0.02310
H419        H  0.13244906  0.04596469  0.43004314     0.15290
H420        H  0.19158858  0.44834687  0.39653386     0.15290
C421        C  0.13709200  0.43508443  0.42599283     0.36940
C422        C  0.18591667  0.05876148  0.40017296     0.36850
N423        N  0.12742722  0.40978259  0.43058731    -0.43400
N424        N  0.19543209  0.08397901  0.39475604    -0.43400
C425        C  0.30719778  0.01632521  0.39865629     0.00190
C426        C  0.32442947  0.04456923  0.39575995    -0.11680
C427        C  0.35381491  0.04755641  0.41207103     0.02430
C428        C  0.36652592  0.02169542  0.43107326     0.00100
C429        C  0.34891664  0.49379135  0.43443924    -0.11620
C430        C  0.31949222  0.49097525  0.41864967     0.02310
H431        H  0.31505034  0.06413592  0.38039883     0.15290
H432        H  0.35849097  0.47380687  0.44905695     0.15290
C433        C  0.30308211  0.46121664  0.42196760     0.36940
C434        C  0.37109467  0.07661409  0.40748855     0.36850
N435        N  0.28985480  0.43741949  0.42459362    -0.43400
N436        N  0.38491756  0.09993302  0.40383661    -0.43400
O437        O  0.41539880  0.99609704  0.43949646    -0.74950
O438        O  0.40821816  0.54533759  0.46302391    -0.53850
C439        C  0.39886665  0.52140015  0.44534119     0.78780
O440        O  0.49202679  0.92294705  0.56129671    -0.59550
O441        O  0.04035660  0.91695194  0.53657784    -0.52580
C442        C  0.01722692  0.90690774  0.55458599     0.70800
O443        O  0.41554388  0.99678587  0.55959222    -0.74110
O444        O  0.40844109  0.54604660  0.53542384    -0.54670
C445        C  0.39915904  0.52222884  0.55337868     0.76800
O446        O  0.49472303  0.92567178  0.43573049    -0.59250
O447        O  0.04126730  0.91724607  0.46404121    -0.52370
C448        C  0.01953490  0.90889882  0.44279441     0.73390
Zr449      Zr  0.46841756  0.97546391  0.44940044     2.54710
O450        O  0.43095581  0.93244268  0.44349559    -0.79820
O451        O  0.47133374  0.98174251  0.38776792    -0.93230
Zr452      Zr  0.46814086  0.97494585  0.55029185     2.64680
O453        O  0.42690532  0.93616541  0.55976651    -0.98190
O454        O  0.47481306  0.98132423  0.61158284    -0.80250
O455        O  0.44567164  0.99613988  0.49954485    -0.83610
O456        O  0.49017922  0.95329052  0.49996160    -2.18320
O457        O  0.08206414  0.51814591  0.43668755    -0.67000
O458        O  0.09182586  0.97121098  0.46470009    -0.51560
C459        C  0.09974229  0.99394709  0.44433100     0.71770
O460        O  0.00668962  0.59212764  0.56050124    -0.59900
O461        O  0.45865493  0.59918941  0.53526965    -0.51880
C462        C  0.48141303  0.60840304  0.55459101     0.73580
O463        O  0.08113183  0.51803581  0.56553418    -0.71300
O464        O  0.09142264  0.97107241  0.53909595    -0.49980
C465        C  0.09890705  0.99379014  0.55978202     0.74960
O466        O  0.00824489  0.59488356  0.44088689    -0.66630
O467        O  0.45904954  0.59936100  0.46377893    -0.53830
C468        C  0.48243942  0.61025781  0.44687556     0.73340
Zr469      Zr  0.03104919  0.54183687  0.44952466     2.77540
O470        O  0.06989712  0.58356771  0.44294607    -0.97380
O471        O  0.02418492  0.53783124  0.38801722    -0.78200
Zr472      Zr  0.03076203  0.54098840  0.55014737     2.70070
O473        O  0.07039107  0.58211686  0.55446707    -0.79450
O474        O  0.02442018  0.53807819  0.61172901    -0.98530
Zr475      Zr  0.45445199  0.55206467  0.49935197     2.21500
Zr476      Zr  0.04550999  0.96430686  0.50073149     2.11130
O477        O  0.05391506  0.52053603  0.50017913    -2.47220
O478        O  0.00917723  0.56330961  0.49973954    -0.79240
O479        O  0.02310920  0.98601282  0.44904856    -0.71430
O480        O  0.47627010  0.53055535  0.55115155    -2.32390
O481        O  0.47644222  0.53116182  0.44785927    -2.28600
O482        O  0.02289381  0.98532405  0.55187278    -0.73190
H483        H  0.48645444  0.93066077  0.49939548     0.78800
H484        H  0.46653132  0.54011996  0.57088804     0.79890
H485        H  0.07609682  0.52526348  0.50066344     0.82120
H486        H  0.46654962  0.54076260  0.42797172     0.79720
H487        H  0.45687708  0.99515650  0.61847042     0.42760
H488        H  0.04024904  0.52200276  0.61951257     0.41730
H489        H  0.07413194  0.58866843  0.53056788     0.41410
H490        H  0.08668542  0.57831692  0.45981582     0.39340
H491        H  0.03329011  0.51668311  0.38220737     0.42470
H492        H  0.45460376  0.99759926  0.38194816     0.37260
H493        H  0.42375622  0.92835240  0.46704897     0.43370
H494        H  0.42833485  0.92147223  0.54015103     0.39790
H495        H  0.07962411  0.57970109  0.42044583     0.44710
H496        H  0.46345137  0.96136983  0.37860925     0.43430
H497        H  0.43389175  0.92330652  0.57974412     0.43570
H498        H  0.03241560  0.55863899  0.62024951     0.43920
C499        C  0.48945574  0.73128270  0.37787235     0.03470
C500        C  0.49608227  0.76080739  0.39341172    -0.12670
C501        C  0.50467099  0.78757326  0.37370884     0.00980
C502        C  0.50627113  0.78403640  0.33811293    -0.11200
C503        C  0.49734900  0.75568085  0.32233493     0.03470
C504        C  0.49042126  0.72906500  0.34217397    -0.10620
H505        H  0.49430166  0.76287338  0.42084115     0.09060
H506        H  0.51425347  0.80333838  0.32215896     0.06590
H507        H  0.48572432  0.70668506  0.32958870     0.06440
C508        C  0.22097840  0.50264631  0.37869438     0.03470
C509        C  0.24904106  0.50733024  0.39687927    -0.12670
C510        C  0.27718982  0.51306471  0.37952820     0.00980
C511        C  0.27698314  0.51447792  0.34376095    -0.11200
C512        C  0.24887410  0.51027295  0.32522595     0.03470
C513        C  0.22096267  0.50414356  0.34298242    -0.10620
H514        H  0.24891908  0.50678092  0.42451686     0.09060
H515        H  0.29886987  0.51816644  0.33037860     0.06590
H516        H  0.19900880  0.50138856  0.32908134     0.06440
C517        C  0.22314733  0.49896047  0.62398907     0.03470
C518        C  0.25034246  0.50385204  0.60460234    -0.12670
C519        C  0.27923733  0.51090303  0.62068805     0.00980
C520        C  0.28047973  0.51324166  0.65650458    -0.11200
C521        C  0.25350244  0.50816252  0.67616743     0.03470
C522        C  0.22499534  0.50133644  0.65961904    -0.10620
H523        H  0.24875992  0.50326121  0.57702516     0.09060
H524        H  0.30261507  0.51836043  0.66914051     0.06590
H525        H  0.20381760  0.49857744  0.67454231     0.06440
C526        C  0.49011316  0.72986133  0.62289966     0.03470
C527        C  0.48614602  0.73203513  0.65825982    -0.12670
C528        C  0.49171158  0.76059858  0.67531793     0.00980
C529        C  0.50026784  0.78770172  0.65684861    -0.11200
C530        C  0.50397437  0.78605554  0.62131629     0.03470
C531        C  0.49872071  0.75706483  0.60446288    -0.10620
H532        H  0.47909068  0.71128795  0.67273753     0.09060
H533        H  0.50389183  0.80998900  0.67009651     0.06590
H534        H  0.50184010  0.75558913  0.57710691     0.06440
C535        C  0.25156593  0.99234593  0.12081088     0.03470
C536        C  0.25378376  0.98992109  0.15641724    -0.12670
C537        C  0.24447579  0.51555659  0.17711632     0.00980
C538        C  0.23377993  0.54399891  0.16163618    -0.11200
C539        C  0.23413672  0.54798738  0.12598600     0.03470
C540        C  0.24243065  0.52157218  0.10566796    -0.10620
H541        H  0.26163962  0.96762634  0.16793899     0.09060
H542        H  0.22524900  0.56321176  0.17762774     0.06590
H543        H  0.24161555  0.52349553  0.07812131     0.06440
O544        O  0.23015553  0.85504912  0.93995629    -0.74950
O545        O  0.27863334  0.85916707  0.96483241    -0.53850
C546        C  0.25556087  0.87021811  0.94651534     0.78780
O547        O  0.15676049  0.78086674  0.06478670    -0.59550
O548        O  0.14650961  0.73491820  0.03615475    -0.52580
C549        C  0.13900177  0.75740545  0.05703310     0.70800
O550        O  0.23128045  0.85421752  0.06053956    -0.74110
O551        O  0.27931577  0.85878618  0.03560187    -0.54670
C552        C  0.25644241  0.86967747  0.05387182     0.76800
O553        O  0.15462996  0.78286643  0.93608003    -0.59250
O554        O  0.14555175  0.73567212  0.96298948    -0.52370
C555        C  0.13730407  0.75881026  0.94286634     0.73390
Zr556      Zr  0.20594646  0.80400397  0.94982243     2.54710
O557        O  0.16630956  0.84638370  0.94526631    -0.79820
O558        O  0.21050017  0.80086572  0.88807679    -0.93230
Zr559      Zr  0.20742800  0.80284144  0.05064912     2.64680
O560        O  0.16889318  0.84611196  0.05651061    -0.98190
O561        O  0.21416291  0.79790610  0.11217138    -0.80250
O562        O  0.22865986  0.82433864  0.00027516    -0.83610
O563        O  0.18374452  0.78330093  0.00020873    -2.18320
O564        O  0.24252720  0.68538114  0.93505118    -0.67000
O565        O  0.19563701  0.67982518  0.96261844    -0.51560
C566        C  0.21764897  0.66987919  0.94264739     0.71770
O567        O  0.32091825  0.75355131  0.06161879    -0.59900
O568        O  0.33032104  0.80103720  0.03579026    -0.51880
C569        C  0.33863528  0.77722228  0.05508900     0.73580
O570        O  0.24207073  0.68642567  0.06525011    -0.71300
O571        O  0.19585709  0.67942351  0.03660015    -0.49980
C572        C  0.21724196  0.67052121  0.05842288     0.74960
O573        O  0.32072783  0.75502311  0.93766859    -0.66630
O574        O  0.32850715  0.80337492  0.96291905    -0.53830
C575        C  0.33723908  0.77971542  0.94423499     0.73340
Zr576      Zr  0.26807409  0.73543510  0.94792691     2.77540
O577        O  0.30750865  0.69345836  0.93925771    -0.97380
O578        O  0.26206210  0.74369966  0.88672942    -0.78200
Zr579      Zr  0.26933657  0.73378355  0.04844794     2.70070
O580        O  0.30418855  0.68768629  0.04212062    -0.79450
O581        O  0.27244568  0.73448105  0.11044160    -0.98530
Zr582      Zr  0.28340472  0.81114035  0.99997946     2.21500
Zr583      Zr  0.19194230  0.72671900  0.99933247     2.11130
O584        O  0.24674441  0.71337223  0.99825721    -2.47220
O585        O  0.29160730  0.75490520  0.99848884    -0.79240
O586        O  0.21345490  0.74799548  0.94781846    -0.71430
O587        O  0.26179045  0.78975336  0.05121012    -2.32390
O588        O  0.26047076  0.79148076  0.94816682    -2.28600
O589        O  0.21502622  0.74678649  0.05066427    -0.73190
H590        H  0.16158527  0.78880531  0.00039264     0.78800
H591        H  0.27199981  0.79839268  0.07116804     0.79890
H592        H  0.25003463  0.69055359  0.99847134     0.82120
H593        H  0.27008185  0.80103345  0.92842796     0.79720
H594        H  0.23015134  0.81393113  0.11815241     0.42760
H595        H  0.25036870  0.73237173  0.11797568     0.41730
H596        H  0.31554029  0.69170774  0.02060679     0.41490
H597        H  0.30238193  0.67659861  0.95597243     0.39340
H598        H  0.24141284  0.73434568  0.88103919     0.42470
H599        H  0.22796275  0.81526355  0.88233420     0.37260
H600        H  0.16383245  0.85415124  0.96891943     0.43370
H601        H  0.15161606  0.84090538  0.04046338     0.39790
H602        H  0.30241275  0.68418427  0.91673741     0.44710
H603        H  0.19136242  0.81201621  0.87926994     0.43430
H604        H  0.15981787  0.84326583  0.07948461     0.43570
H605        H  0.28267339  0.71385935  0.11665418     0.43920
C606        C  0.46091720  0.77317615  0.12220929     0.03470
C607        C  0.46114512  0.76731890  0.15749054    -0.12670
C608        C  0.48964269  0.76186691  0.17527128     0.00980
C609        C  0.01789405  0.76208901  0.15696898    -0.11200
C610        C  0.01764383  0.76609950  0.12157096     0.03470
C611        C  0.48925376  0.77226986  0.10420662    -0.10620
H612        H  0.43894200  0.76647997  0.17087457     0.09060
H613        H  0.04030627  0.75931283  0.17011395     0.06590
H614        H  0.48911963  0.77535031  0.07674714     0.06440
C615        C  0.25177130  0.99301933  0.87919852     0.03470
C616        C  0.25738486  0.99302532  0.84413280    -0.12670
C617        C  0.25074749  0.52027720  0.82408304     0.00980
C618        C  0.23994352  0.54832391  0.84037818    -0.11200
C619        C  0.23546120  0.54895845  0.87599690     0.03470
C620        C  0.24099012  0.52090920  0.89493022    -0.10620
H621        H  0.26564720  0.97119286  0.83226116     0.09060
H622        H  0.23491658  0.56954676  0.82544004     0.06590
H623        H  0.23652503  0.52057109  0.92210986     0.06440
C624        C  0.45724439  0.76812832  0.87752666     0.03470
C625        C  0.45607422  0.76301030  0.84214226    -0.12670
C626        C  0.48379546  0.76155125  0.82284034     0.00980
C627        C  0.01286044  0.76215829  0.84029177    -0.11200
C628        C  0.01464731  0.76609264  0.87571691     0.03470
C629        C  0.48662643  0.76984582  0.89411239    -0.10620
H630        H  0.43339865  0.76001758  0.82991223     0.09060
H631        H  0.03452368  0.75967974  0.82627950     0.06590
H632        H  0.48769139  0.77428515  0.92128668     0.06440
C633        C  0.21688671  0.63709589  0.92939358     0.00190
C634        C  0.19846089  0.62968454  0.90074797    -0.11680
C635        C  0.20308997  0.60063751  0.88346480     0.02430
C636        C  0.22712863  0.57900374  0.89442147     0.00100
C637        C  0.24432424  0.58614558  0.92413256    -0.11620
C638        C  0.23914358  0.61453723  0.94174324     0.02310
H639        H  0.18124017  0.64697144  0.89124450     0.15290
H640        H  0.26266039  0.56986055  0.93321213     0.15290
C641        C  0.25759112  0.62039215  0.97216562     0.36940
C642        C  0.18259808  0.59347925  0.85507354     0.36850
N643        N  0.27223481  0.62492509  0.99663823    -0.43400
N644        N  0.16610448  0.58771511  0.83235778    -0.43400
C645        C  0.25365617  0.96281889  0.89875304     0.00190
C646        C  0.28274118  0.94686419  0.90332645    -0.11680
C647        C  0.28457402  0.91725565  0.92026623     0.02430
C648        C  0.25674262  0.90297610  0.93212976     0.00100
C649        C  0.22792230  0.91967279  0.92826232    -0.11620
C650        C  0.22616345  0.94915599  0.91181315     0.02310
H651        H  0.30395501  0.95746267  0.89341782     0.15290
H652        H  0.20635588  0.90936774  0.93766633     0.15290
C653        C  0.19555615  0.96421193  0.90725157     0.36940
C654        C  0.31500499  0.90182004  0.92414337     0.36850
N655        N  0.17106387  0.97628780  0.90357677    -0.43400
N656        N  0.33951612  0.88969712  0.92745781    -0.43400
C657        C  0.37069561  0.77614839  0.07121564     0.00190
C658        C  0.38916302  0.80380393  0.07212980    -0.11680
C659        C  0.41889477  0.80354365  0.08828246     0.02430
C660        C  0.43053838  0.77530231  0.10376170     0.00100
C661        C  0.41268587  0.74778808  0.10243611    -0.11620
C662        C  0.38331352  0.74769807  0.08645790     0.02310
H663        H  0.38022177  0.82579400  0.06079076     0.15290
H664        H  0.42191245  0.72601644  0.11413662     0.15290
C665        C  0.36747939  0.71746575  0.08654671     0.36940
C666        C  0.43658431  0.83261978  0.08969621     0.36850
N667        N  0.35565941  0.69280948  0.08749086    -0.43400
N668        N  0.45078380  0.85592674  0.09095242    -0.43400
C669        C  0.10719884  0.75822734  0.07242635     0.00190
C670        C  0.09407155  0.78836728  0.08033380    -0.11680
C671        C  0.06470343  0.79131770  0.09572625     0.02430
C672        C  0.04753090  0.76386128  0.10304601     0.00100
C673        C  0.06012272  0.73369153  0.09505609    -0.11620
C674        C  0.08982609  0.73060840  0.07989559     0.02310
H675        H  0.10687084  0.80990313  0.07467467     0.15290
H676        H  0.04698379  0.71251862  0.10138975     0.15290
C677        C  0.10234921  0.69895503  0.07382484     0.36940
C678        C  0.05309871  0.82266526  0.10491445     0.36850
N679        N  0.11230329  0.67355226  0.06891945    -0.43400
N680        N  0.04383621  0.84771984  0.11251215    -0.43400
C681        C  0.42747469  0.77257087  0.89671101     0.00190
C682        C  0.40477106  0.79460162  0.88429896    -0.11680
C683        C  0.37552348  0.79820398  0.90018595     0.02430
C684        C  0.36886086  0.77997610  0.92936663     0.00100
C685        C  0.39158453  0.75839946  0.94222287    -0.11620
C686        C  0.42071483  0.75448359  0.92617849     0.02310
H687        H  0.40967673  0.80857405  0.86168457     0.15290
H688        H  0.38611154  0.74381693  0.96425915     0.15290
C689        C  0.44233636  0.73038900  0.93924190     0.36940
C690        C  0.35199881  0.81908695  0.88485829     0.36850
N691        N  0.45965951  0.71107798  0.94971629    -0.43400
N692        N  0.33303025  0.83553754  0.87233531    -0.43400
C693        C  0.04590272  0.76516362  0.89337559     0.00190
C694        C  0.04977770  0.74659258  0.92311855    -0.11680
C695        C  0.07913384  0.74368846  0.93966974     0.02430
C696        C  0.10571484  0.75898328  0.92599573     0.00100
C697        C  0.10165575  0.77757376  0.89627017    -0.11620
C698        C  0.07228534  0.78129011  0.88039996     0.02310
H699        H  0.02977377  0.73413116  0.93346404     0.15290
H700        H  0.12153788  0.78991854  0.88547708     0.15290
C701        C  0.06997842  0.80288747  0.85162991     0.36940
C702        C  0.08067507  0.72602757  0.97127857     0.36850
N703        N  0.06834861  0.82002224  0.82844395    -0.43400
N704        N  0.08146319  0.71189659  0.99667066    -0.43400
C705        C  0.22643681  0.57986799  0.11029468     0.00190
C706        C  0.20811255  0.58203757  0.08013095    -0.11680
C707        C  0.20282441  0.61148928  0.06336325     0.02430
C708        C  0.21516917  0.63970923  0.07737756     0.00100
C709        C  0.23152149  0.63760498  0.10865455    -0.11620
C710        C  0.23822183  0.60838610  0.12435101     0.02310
H711        H  0.19863176  0.56055174  0.06903145     0.15290
H712        H  0.24119373  0.65895233  0.11995866     0.15290
C713        C  0.25986415  0.60866472  0.15298992     0.36940
C714        C  0.18657923  0.61162828  0.03090011     0.36850
N715        N  0.27731507  0.60934242  0.17578872    -0.43400
N716        N  0.17363806  0.61159894  0.00481311    -0.43400
C717        C  0.25747865  0.90264168  0.06783281     0.00190
C718        C  0.22861046  0.91931224  0.07092525    -0.11680
C719        C  0.22673179  0.94894992  0.08687934     0.02430
C720        C  0.25413314  0.96295364  0.10007640     0.00100
C721        C  0.28328723  0.94703054  0.09627783    -0.11620
C722        C  0.28522640  0.91716843  0.07999019     0.02310
H723        H  0.20707169  0.90878347  0.06147078     0.15290
H724        H  0.30439525  0.95760461  0.10673439     0.15290
C725        C  0.31556391  0.90135450  0.07772030     0.36940
C726        C  0.19603718  0.96366865  0.09129687     0.36850
N727        N  0.33991052  0.88870946  0.07586042    -0.43400
N728        N  0.17150006  0.97547208  0.09505301    -0.43400
C729        C  0.48962856  0.76125960  0.71278750     0.00190
C730        C  0.46434698  0.77712110  0.72827419    -0.11680
C731        C  0.46136017  0.77730970  0.76387072     0.02430
C732        C  0.48331847  0.75988430  0.78461717     0.00100
C733        C  0.00780498  0.74292496  0.76829003    -0.11620
C734        C  0.01200220  0.74492913  0.73314065     0.02310
H735        H  0.44724104  0.78992755  0.71248226     0.15290
H736        H  0.02466277  0.72881826  0.78301267     0.15290
C737        C  0.04107544  0.73278187  0.71903274     0.36940
C738        C  0.43634781  0.79682884  0.77780358     0.36850
N739        N  0.06501227  0.72412215  0.70830320    -0.43400
N740        N  0.41604031  0.81242098  0.78855732    -0.43400
C741        C  0.25454109  0.51052256  0.71406434     0.00190
C742        C  0.26668878  0.53793264  0.72958109    -0.11680
C743        C  0.26613918  0.54170976  0.76519308     0.02430
C744        C  0.25270243  0.51791477  0.78604839     0.00100
C745        C  0.24102588  0.99035761  0.77027958    -0.11620
C746        C  0.24239204  0.98623421  0.73497035     0.02310
H747        H  0.27637693  0.55661357  0.71378665     0.15290
H748        H  0.23061275  0.97176921  0.78561850     0.15290
C749        C  0.23215779  0.95627435  0.72096702     0.36940
C750        C  0.28038374  0.56973459  0.77949496     0.36850
N751        N  0.22411597  0.93223510  0.70972314    -0.43400
N752        N  0.29174039  0.59227847  0.79087410    -0.43400
C753        C  0.24854183  0.51173770  0.28729028     0.00190
C754        C  0.23420934  0.98707684  0.26895748    -0.11680
C755        C  0.23265848  0.98767927  0.23324765     0.02430
C756        C  0.24604382  0.51319595  0.21501833     0.00100
C757        C  0.26043154  0.53781471  0.23338414    -0.11620
C758        C  0.26154354  0.53748050  0.26908439     0.02310
H759        H  0.22397078  0.96729183  0.28264660     0.15290
H760        H  0.27066472  0.55760173  0.21974624     0.15290
C761        C  0.27481844  0.56460230  0.28629895     0.36940
C762        C  0.21595065  0.96255223  0.21614869     0.36850
N763        N  0.28542141  0.58637775  0.30003277    -0.43400
N764        N  0.20258223  0.94239965  0.20243640    -0.43400
C765        C  0.49342451  0.75481116  0.28489899     0.00190
C766        C  0.01249523  0.73452500  0.26538224    -0.11680
C767        C  0.01038358  0.73496930  0.22969559     0.02430
C768        C  0.49000680  0.75730198  0.21300377     0.00100
C769        C  0.46974035  0.77621984  0.23293097    -0.11620
C770        C  0.47055745  0.77426108  0.26846192     0.02310
H771        H  0.02900836  0.71833113  0.27805615     0.15290
H772        H  0.45321457  0.79276071  0.22084468     0.15290
C773        C  0.44633666  0.79071868  0.28747251     0.36940
C774        C  0.02833472  0.71135270  0.21109214     0.36850
N775        N  0.42637837  0.80319510  0.30256726    -0.43400
N776        N  0.04261477  0.69235167  0.19617561    -0.43400
C777        C  0.01778420  0.87389438  0.56735903     0.00190
C778        C  0.03995816  0.86421027  0.59210004    -0.11680
C779        C  0.03675856  0.83496114  0.60919214     0.02430
C780        C  0.51099184  0.81517496  0.60144358     0.00100
C781        C  0.49016715  0.82409035  0.57508281    -0.11620
C782        C  0.49336304  0.85310003  0.55805801     0.02310
H783        H  0.05890108  0.88002906  0.59907186     0.15290
H784        H  0.47058655  0.80886550  0.56862398     0.15290
C785        C  0.47101487  0.86116983  0.53127593     0.36940
C786        C  0.06011914  0.82574620  0.63445322     0.36850
N787        N  0.45316324  0.86739313  0.50971414    -0.43400
N788        N  0.07887535  0.81828904  0.65464979    -0.43400
C789        C  0.47979137  0.63946595  0.57243215     0.00190
C790        C  0.99819090  0.64214545  0.60219089    -0.11680
C791        C  0.00237421  0.67122038  0.61815991     0.02430
C792        C  0.48652306  0.69870597  0.60570522     0.00100
C793        C  0.46719236  0.69619579  0.57650289    -0.11620
C794        C  0.46387993  0.66687570  0.55962831     0.02310
H795        H  0.01059269  0.62142150  0.61259044     0.15290
H796        H  0.45496101  0.71723024  0.56667683     0.15290
C797        C  0.44530657  0.66599072  0.52868237     0.36940
C798        C  0.02494080  0.67201622  0.64584136     0.36850
N799        N  0.43042411  0.66533633  0.50384752    -0.43400
N800        N  0.04336729  0.67150200  0.66770990    -0.43400
C801        C  0.02161737  0.87802253  0.42433729     0.00190
C802        C  0.50783019  0.87725028  0.39176918    -0.11680
C803        C  0.50190266  0.84866876  0.37510963     0.02430
C804        C  0.51142266  0.81914741  0.39013415     0.00100
C805        C  0.02712501  0.82003413  0.42204363    -0.11620
C806        C  0.03188788  0.84899261  0.43935199     0.02310
H807        H  0.49993426  0.89939503  0.37978721     0.15290
H808        H  0.03520647  0.79798181  0.43394296     0.15290
C809        C  0.04563553  0.84793019  0.47310224     0.36940
C810        C  0.48410054  0.85137634  0.34371213     0.36850
N811        N  0.05668947  0.84681899  0.50015630    -0.43400
N812        N  0.47020785  0.85502655  0.31846800    -0.43400
C813        C  0.48354166  0.70217697  0.39878026     0.00190
C814        C  0.00383517  0.69523364  0.42641578    -0.11680
C815        C  0.00237099  0.66606246  0.44374479     0.02430
C816        C  0.48041806  0.64307675  0.43345153     0.00100
C817        C  0.45871212  0.65059189  0.40750964    -0.11620
C818        C  0.45992449  0.67989918  0.39024202     0.02310
H819        H  0.02185425  0.71203266  0.43360212     0.15290
H820        H  0.44164526  0.63302084  0.39977275     0.15290
C821        C  0.43676620  0.68621476  0.36379266     0.36940
C822        C  0.02380049  0.66002899  0.47192503     0.36850
N823        N  0.41830502  0.69103705  0.34243896    -0.43400
N824        N  0.04076560  0.65517986  0.49466945    -0.43400
C825        C  0.13029312  0.99359606  0.57782167     0.00190
C826        C  0.15321066  0.96998476  0.57048333    -0.11680
C827        C  0.18352587  0.97075282  0.58541055     0.02430
C828        C  0.19168571  0.49589719  0.60747599     0.00100
C829        C  0.16885565  0.51891514  0.61536628    -0.11620
C830        C  0.13854651  0.51789816  0.60156482     0.02310
H831        H  0.14751871  0.95082987  0.55312456     0.15290
H832        H  0.17482356  0.53803314  0.63274204     0.15290
C833        C  0.11692236  0.54242572  0.61319990     0.36940
C834        C  0.20510128  0.94459385  0.57919832     0.36850
N835        N  0.10007733  0.56225831  0.62299162    -0.43400
N836        N  0.22190094  0.92311852  0.57446216    -0.43400
C837        C  0.36696751  0.52271568  0.56737028     0.00190
C838        C  0.34794099  0.49646437  0.56049337    -0.11680
C839        C  0.31899308  0.99272495  0.57662050     0.02430
C840        C  0.30838922  0.51564413  0.60040420     0.00100
C841        C  0.32706608  0.54259502  0.60646384    -0.11620
C842        C  0.35615445  0.54630696  0.59011468     0.02310
H843        H  0.35629327  0.97815195  0.54314221     0.15290
H844        H  0.31923335  0.56041777  0.62460398     0.15290
C845        C  0.37536438  0.57328161  0.59869221     0.36940
C846        C  0.30194517  0.96392325  0.56985991     0.36850
N847        N  0.39088224  0.59480970  0.60558628    -0.43400
N848        N  0.28872352  0.94063470  0.56405903    -0.43400
C849        C  0.13183629  0.99431311  0.42928873     0.00190
C850        C  0.14500487  0.52436410  0.42278683    -0.11680
C851        C  0.17406596  0.52723816  0.40684860     0.02430
C852        C  0.19091523  0.49974060  0.39705671     0.00100
C853        C  0.17852735  0.96955598  0.40408630    -0.11620
C854        C  0.14920931  0.96660104  0.42025974     0.02310
H855        H  0.13244906  0.54596470  0.43004313     0.15290
H856        H  0.19158857  0.94834686  0.39653384     0.15290
C857        C  0.13709199  0.93508442  0.42599282     0.36940
C858        C  0.18591666  0.55876149  0.40017295     0.36850
N859        N  0.12742720  0.90978259  0.43058729    -0.43400
N860        N  0.19543208  0.58397903  0.39475603    -0.43400
C861        C  0.30719778  0.51632522  0.39865630     0.00190
C862        C  0.32442948  0.54456924  0.39575995    -0.11680
C863        C  0.35381492  0.54755643  0.41207103     0.02430
C864        C  0.36652593  0.52169543  0.43107326     0.00100
C865        C  0.34891664  0.99379133  0.43443924    -0.11620
C866        C  0.31949222  0.99097524  0.41864966     0.02310
H867        H  0.31505035  0.56413594  0.38039883     0.15290
H868        H  0.35849096  0.97380686  0.44905694     0.15290
C869        C  0.30308211  0.96121662  0.42196760     0.36940
C870        C  0.37109468  0.57661410  0.40748856     0.36850
N871        N  0.28985480  0.93741947  0.42459362    -0.43400
N872        N  0.38491756  0.59993303  0.40383661    -0.43400
O873        O  0.91539880  0.49609704  0.43949645    -0.74950
O874        O  0.90821816  0.04533759  0.46302391    -0.53850
C875        C  0.89886664  0.02140015  0.44534119     0.78780
O876        O  0.99202679  0.42294705  0.56129671    -0.59550
O877        O  0.54035661  0.41695195  0.53657784    -0.52580
C878        C  0.51722692  0.40690774  0.55458599     0.70800
O879        O  0.91554388  0.49678587  0.55959223    -0.74110
O880        O  0.90844109  0.04604660  0.53542384    -0.54670
C881        C  0.89915904  0.02222884  0.55337867     0.76800
O882        O  0.99472303  0.42567178  0.43573049    -0.59250
O883        O  0.54126731  0.41724608  0.46404121    -0.52370
C884        C  0.51953490  0.40889882  0.44279441     0.73390
Zr885      Zr  0.96841756  0.47546391  0.44940044     2.54710
O886        O  0.93095581  0.43244268  0.44349560    -0.79820
O887        O  0.97133374  0.48174250  0.38776792    -0.93230
Zr888      Zr  0.96814086  0.47494585  0.55029186     2.64680
O889        O  0.92690533  0.43616542  0.55976652    -0.98190
O890        O  0.97481307  0.48132424  0.61158284    -0.80250
O891        O  0.94567165  0.49613988  0.49954485    -0.83610
O892        O  0.99017922  0.45329052  0.49996160    -2.18320
O893        O  0.58206414  0.01814591  0.43668756    -0.67000
O894        O  0.59182587  0.47121099  0.46470008    -0.51560
C895        C  0.59974229  0.49394709  0.44433100     0.71770
O896        O  0.50668961  0.09212764  0.56050125    -0.59900
O897        O  0.95865494  0.09918940  0.53526965    -0.51880
C898        C  0.98141304  0.10840304  0.55459101     0.73580
O899        O  0.58113182  0.01803582  0.56553418    -0.71300
O900        O  0.59142265  0.47107242  0.53909594    -0.49980
C901        C  0.59890705  0.49379015  0.55978201     0.74960
O902        O  0.50824488  0.09488356  0.44088689    -0.66630
O903        O  0.95904954  0.09936100  0.46377893    -0.53830
C904        C  0.98243943  0.11025781  0.44687556     0.73340
Zr905      Zr  0.53104919  0.04183688  0.44952466     2.77540
O906        O  0.56989711  0.08356772  0.44294607    -0.97380
O907        O  0.52418491  0.03783124  0.38801723    -0.78200
Zr908      Zr  0.53076203  0.04098841  0.55014737     2.70070
O909        O  0.57039107  0.08211686  0.55446707    -0.79450
O910        O  0.52442018  0.03807819  0.61172902    -0.98530
Zr911      Zr  0.95445199  0.05206467  0.49935197     2.21500
Zr912      Zr  0.54550999  0.46430686  0.50073149     2.11130
O913        O  0.55391506  0.02053603  0.50017913    -2.47220
O914        O  0.50917723  0.06330961  0.49973954    -0.79240
O915        O  0.52310920  0.48601282  0.44904856    -0.71430
O916        O  0.97627010  0.03055535  0.55115155    -2.32390
O917        O  0.97644222  0.03116182  0.44785927    -2.28600
O918        O  0.52289382  0.48532406  0.55187277    -0.73190
H919        H  0.98645444  0.43066077  0.49939548     0.78800
H920        H  0.96653132  0.04011996  0.57088804     0.79890
H921        H  0.57609682  0.02526348  0.50066344     0.82120
H922        H  0.96654962  0.04076260  0.42797172     0.79720
H923        H  0.95687709  0.49515650  0.61847042     0.42760
H924        H  0.54024903  0.02200276  0.61951257     0.41730
H925        H  0.57413193  0.08866844  0.53056788     0.41410
H926        H  0.58668541  0.07831693  0.45981582     0.39340
H927        H  0.53329012  0.01668312  0.38220737     0.42470
H928        H  0.95460377  0.49759926  0.38194816     0.37260
H929        H  0.92375621  0.42835241  0.46704898     0.43370
H930        H  0.92833485  0.42147223  0.54015104     0.39790
H931        H  0.57962411  0.07970109  0.42044583     0.44710
H932        H  0.96345135  0.46136983  0.37860926     0.43430
H933        H  0.93389175  0.42330652  0.57974413     0.43570
H934        H  0.53241560  0.05863899  0.62024951     0.43920
C935        C  0.98945574  0.23128270  0.37787235     0.03470
C936        C  0.99608228  0.26080739  0.39341172    -0.12670
C937        C  0.00467100  0.28757326  0.37370884     0.00980
C938        C  0.00627114  0.28403640  0.33811293    -0.11200
C939        C  0.99734901  0.25568084  0.32233493     0.03470
C940        C  0.99042126  0.22906500  0.34217397    -0.10620
H941        H  0.99430167  0.26287338  0.42084115     0.09060
H942        H  0.01425348  0.30333837  0.32215896     0.06590
H943        H  0.98572432  0.20668506  0.32958870     0.06440
C944        C  0.72097840  0.00264631  0.37869438     0.03470
C945        C  0.74904106  0.00733025  0.39687927    -0.12670
C946        C  0.77718982  0.01306471  0.37952821     0.00980
C947        C  0.77698314  0.01447791  0.34376095    -0.11200
C948        C  0.74887409  0.01027295  0.32522595     0.03470
C949        C  0.72096267  0.00414356  0.34298242    -0.10620
H950        H  0.74891908  0.00678092  0.42451686     0.09060
H951        H  0.79886987  0.01816643  0.33037860     0.06590
H952        H  0.69900880  0.00138856  0.32908134     0.06440
C953        C  0.72314733  0.99896047  0.62398907     0.03470
C954        C  0.75034246  0.00385204  0.60460234    -0.12670
C955        C  0.77923733  0.01090303  0.62068804     0.00980
C956        C  0.78047973  0.01324166  0.65650458    -0.11200
C957        C  0.75350243  0.00816252  0.67616743     0.03470
C958        C  0.72499534  0.00133643  0.65961904    -0.10620
H959        H  0.74875992  0.00326122  0.57702516     0.09060
H960        H  0.80261507  0.01836043  0.66914051     0.06590
H961        H  0.70381760  0.99857743  0.67454231     0.06440
C962        C  0.99011316  0.22986133  0.62289966     0.03470
C963        C  0.98614602  0.23203513  0.65825982    -0.12670
C964        C  0.99171157  0.26059858  0.67531793     0.00980
C965        C  0.00026784  0.28770172  0.65684861    -0.11200
C966        C  0.00397436  0.28605554  0.62131629     0.03470
C967        C  0.99872071  0.25706483  0.60446288    -0.10620
H968        H  0.97909067  0.21128795  0.67273753     0.09060
H969        H  0.00389183  0.30998900  0.67009651     0.06590
H970        H  0.00184010  0.25558913  0.57710691     0.06440
C971        C  0.75156592  0.49234593  0.12081088     0.03470
C972        C  0.75378376  0.48992109  0.15641725    -0.12670
C973        C  0.74447579  0.01555659  0.17711633     0.00980
C974        C  0.73377993  0.04399890  0.16163618    -0.11200
C975        C  0.73413672  0.04798738  0.12598600     0.03470
C976        C  0.74243064  0.02157218  0.10566796    -0.10620
H977        H  0.76163962  0.46762635  0.16793900     0.09060
H978        H  0.72524900  0.06321176  0.17762774     0.06590
H979        H  0.74161555  0.02349553  0.07812131     0.06440
O980        O  0.73015553  0.35504912  0.93995629    -0.74950
O981        O  0.77863334  0.35916707  0.96483241    -0.53850
C982        C  0.75556087  0.37021811  0.94651535     0.78780
O983        O  0.65676049  0.28086674  0.06478671    -0.59550
O984        O  0.64650961  0.23491820  0.03615476    -0.52580
C985        C  0.63900177  0.25740545  0.05703311     0.70800
O986        O  0.73128045  0.35421752  0.06053956    -0.74110
O987        O  0.77931577  0.35878618  0.03560188    -0.54670
C988        C  0.75644241  0.36967747  0.05387183     0.76800
O989        O  0.65462995  0.28286643  0.93608004    -0.59250
O990        O  0.64555174  0.23567212  0.96298948    -0.52370
C991        C  0.63730407  0.25881027  0.94286634     0.73390
Zr992      Zr  0.70594646  0.30400397  0.94982243     2.54710
O993        O  0.66630956  0.34638370  0.94526632    -0.79820
O994        O  0.71050017  0.30086572  0.88807679    -0.93230
Zr995      Zr  0.70742800  0.30284144  0.05064912     2.64680
O996        O  0.66889318  0.34611196  0.05651061    -0.98190
O997        O  0.71416292  0.29790610  0.11217138    -0.80250
O998        O  0.72865986  0.32433864  0.00027517    -0.83610
O999        O  0.68374452  0.28330093  0.00020874    -2.18320
O1000       O  0.74252720  0.18538114  0.93505118    -0.67000
O1001       O  0.69563701  0.17982518  0.96261844    -0.51560
C1002       C  0.71764896  0.16987919  0.94264739     0.71770
O1003       O  0.82091825  0.25355131  0.06161880    -0.59900
O1004       O  0.83032104  0.30103720  0.03579027    -0.51880
C1005       C  0.83863528  0.27722228  0.05508900     0.73580
O1006       O  0.74207073  0.18642567  0.06525012    -0.71300
O1007       O  0.69585709  0.17942351  0.03660015    -0.49980
C1008       C  0.71724196  0.17052121  0.05842288     0.74960
O1009       O  0.82072783  0.25502311  0.93766859    -0.66630
O1010       O  0.82850714  0.30337492  0.96291906    -0.53830
C1011       C  0.83723908  0.27971542  0.94423499     0.73340
Zr1012     Zr  0.76807409  0.23543510  0.94792691     2.77540
O1013       O  0.80750865  0.19345836  0.93925772    -0.97380
O1014       O  0.76206210  0.24369966  0.88672942    -0.78200
Zr1015     Zr  0.76933657  0.23378355  0.04844795     2.70070
O1016       O  0.80418856  0.18768629  0.04212062    -0.79450
O1017       O  0.77244568  0.23448104  0.11044160    -0.98530
Zr1018     Zr  0.78340472  0.31114035  0.99997946     2.21500
Zr1019     Zr  0.69194230  0.22671900  0.99933247     2.11130
O1020       O  0.74674441  0.21337223  0.99825722    -2.47220
O1021       O  0.79160730  0.25490520  0.99848884    -0.79240
O1022       O  0.71345490  0.24799548  0.94781847    -0.71430
O1023       O  0.76179045  0.28975336  0.05121012    -2.32390
O1024       O  0.76047075  0.29148076  0.94816683    -2.28600
O1025       O  0.71502622  0.24678649  0.05066428    -0.73190
H1026       H  0.66158527  0.28880531  0.00039265     0.78800
H1027       H  0.77199981  0.29839268  0.07116805     0.79890
H1028       H  0.75003463  0.19055359  0.99847134     0.82120
H1029       H  0.77008185  0.30103345  0.92842796     0.79720
H1030       H  0.73015134  0.31393113  0.11815242     0.42760
H1031       H  0.75036870  0.23237173  0.11797568     0.41730
H1032       H  0.81554030  0.19170775  0.02060679     0.41490
H1033       H  0.80238193  0.17659861  0.95597243     0.39340
H1034       H  0.74141284  0.23434569  0.88103919     0.42470
H1035       H  0.72796275  0.31526355  0.88233421     0.37260
H1036       H  0.66383245  0.35415124  0.96891944     0.43370
H1037       H  0.65161606  0.34090537  0.04046339     0.39790
H1038       H  0.80241274  0.18418427  0.91673741     0.44710
H1039       H  0.69136242  0.31201622  0.87926994     0.43430
H1040       H  0.65981787  0.34326583  0.07948461     0.43570
H1041       H  0.78267339  0.21385935  0.11665419     0.43920
C1042       C  0.96091720  0.27317615  0.12220929     0.03470
C1043       C  0.96114512  0.26731890  0.15749055    -0.12670
C1044       C  0.98964269  0.26186691  0.17527128     0.00980
C1045       C  0.51789405  0.26208901  0.15696898    -0.11200
C1046       C  0.51764383  0.26609950  0.12157097     0.03470
C1047       C  0.98925376  0.27226987  0.10420662    -0.10620
H1048       H  0.93894200  0.26647998  0.17087457     0.09060
H1049       H  0.54030626  0.25931283  0.17011396     0.06590
H1050       H  0.98911963  0.27535031  0.07674714     0.06440
C1051       C  0.75177130  0.49301932  0.87919852     0.03470
C1052       C  0.75738486  0.49302531  0.84413280    -0.12670
C1053       C  0.75074748  0.02027720  0.82408304     0.00980
C1054       C  0.73994352  0.04832391  0.84037818    -0.11200
C1055       C  0.73546120  0.04895845  0.87599690     0.03470
C1056       C  0.74099011  0.02090920  0.89493022    -0.10620
H1057       H  0.76564719  0.47119286  0.83226115     0.09060
H1058       H  0.73491657  0.06954676  0.82544004     0.06590
H1059       H  0.73652502  0.02057109  0.92210986     0.06440
C1060       C  0.95724439  0.26812833  0.87752666     0.03470
C1061       C  0.95607422  0.26301031  0.84214227    -0.12670
C1062       C  0.98379545  0.26155126  0.82284035     0.00980
C1063       C  0.51286044  0.26215830  0.84029177    -0.11200
C1064       C  0.51464731  0.26609265  0.87571691     0.03470
C1065       C  0.98662643  0.26984583  0.89411239    -0.10620
H1066       H  0.93339865  0.26001759  0.82991223     0.09060
H1067       H  0.53452368  0.25967974  0.82627950     0.06590
H1068       H  0.98769139  0.27428516  0.92128669     0.06440
C1069       C  0.71688671  0.13709590  0.92939357     0.00190
C1070       C  0.69846088  0.12968454  0.90074797    -0.11680
C1071       C  0.70308997  0.10063751  0.88346480     0.02430
C1072       C  0.72712863  0.07900374  0.89442147     0.00100
C1073       C  0.74432423  0.08614559  0.92413256    -0.11620
C1074       C  0.73914357  0.11453723  0.94174324     0.02310
H1075       H  0.68124017  0.14697144  0.89124450     0.15290
H1076       H  0.76266039  0.06986055  0.93321213     0.15290
C1077       C  0.75759112  0.12039215  0.97216562     0.36940
C1078       C  0.68259807  0.09347925  0.85507354     0.36850
N1079       N  0.77223481  0.12492510  0.99663822    -0.43400
N1080       N  0.66610448  0.08771512  0.83235778    -0.43400
C1081       C  0.75365617  0.46281889  0.89875305     0.00190
C1082       C  0.78274118  0.44686419  0.90332645    -0.11680
C1083       C  0.78457401  0.41725565  0.92026623     0.02430
C1084       C  0.75674262  0.40297610  0.93212977     0.00100
C1085       C  0.72792230  0.41967280  0.92826232    -0.11620
C1086       C  0.72616345  0.44915599  0.91181315     0.02310
H1087       H  0.80395501  0.45746267  0.89341783     0.15290
H1088       H  0.70635588  0.40936774  0.93766634     0.15290
C1089       C  0.69555615  0.46421193  0.90725158     0.36940
C1090       C  0.81500498  0.40182005  0.92414338     0.36850
N1091       N  0.67106387  0.47628780  0.90357677    -0.43400
N1092       N  0.83951612  0.38969713  0.92745782    -0.43400
C1093       C  0.87069561  0.27614839  0.07121564     0.00190
C1094       C  0.88916302  0.30380393  0.07212980    -0.11680
C1095       C  0.91889478  0.30354365  0.08828246     0.02430
C1096       C  0.93053838  0.27530231  0.10376171     0.00100
C1097       C  0.91268586  0.24778808  0.10243612    -0.11620
C1098       C  0.88331352  0.24769808  0.08645792     0.02310
H1099       H  0.88022178  0.32579400  0.06079075     0.15290
H1100       H  0.92191244  0.22601644  0.11413664     0.15290
C1101       C  0.86747938  0.21746576  0.08654673     0.36940
C1102       C  0.93658432  0.33261978  0.08969620     0.36850
N1103       N  0.85565940  0.19280949  0.08749090    -0.43400
N1104       N  0.95078381  0.35592673  0.09095240    -0.43400
C1105       C  0.60719884  0.25822734  0.07242636     0.00190
C1106       C  0.59407155  0.28836728  0.08033381    -0.11680
C1107       C  0.56470343  0.29131770  0.09572626     0.02430
C1108       C  0.54753090  0.26386128  0.10304601     0.00100
C1109       C  0.56012272  0.23369153  0.09505609    -0.11620
C1110       C  0.58982609  0.23060840  0.07989560     0.02310
H1111       H  0.60687084  0.30990313  0.07467468     0.15290
H1112       H  0.54698379  0.21251862  0.10138976     0.15290
C1113       C  0.60234921  0.19895503  0.07382484     0.36940
C1114       C  0.55309871  0.32266526  0.10491446     0.36850
N1115       N  0.61230328  0.17355226  0.06891945    -0.43400
N1116       N  0.54383621  0.34771984  0.11251216    -0.43400
C1117       C  0.92747469  0.27257088  0.89671101     0.00190
C1118       C  0.90477106  0.29460163  0.88429896    -0.11680
C1119       C  0.87552348  0.29820398  0.90018596     0.02430
C1120       C  0.86886086  0.27997611  0.92936663     0.00100
C1121       C  0.89158453  0.25839947  0.94222287    -0.11620
C1122       C  0.92071483  0.25448360  0.92617849     0.02310
H1123       H  0.90967673  0.30857406  0.86168458     0.15290
H1124       H  0.88611154  0.24381693  0.96425915     0.15290
C1125       C  0.94233636  0.23038901  0.93924190     0.36940
C1126       C  0.85199880  0.31908695  0.88485830     0.36850
N1127       N  0.95965951  0.21107798  0.94971629    -0.43400
N1128       N  0.83303025  0.33553754  0.87233532    -0.43400
C1129       C  0.54590272  0.26516362  0.89337559     0.00190
C1130       C  0.54977770  0.24659259  0.92311855    -0.11680
C1131       C  0.57913384  0.24368847  0.93966974     0.02430
C1132       C  0.60571484  0.25898328  0.92599573     0.00100
C1133       C  0.60165576  0.27757376  0.89627016    -0.11620
C1134       C  0.57228534  0.28129011  0.88039996     0.02310
H1135       H  0.52977377  0.23413118  0.93346404     0.15290
H1136       H  0.62153789  0.28991854  0.88547707     0.15290
C1137       C  0.56997843  0.30288747  0.85162990     0.36940
C1138       C  0.58067506  0.22602758  0.97127857     0.36850
N1139       N  0.56834863  0.32002223  0.82844394    -0.43400
N1140       N  0.58146318  0.21189661  0.99667067    -0.43400
C1141       C  0.72643681  0.07986799  0.11029468     0.00190
C1142       C  0.70811255  0.08203757  0.08013095    -0.11680
C1143       C  0.70282441  0.11148928  0.06336325     0.02430
C1144       C  0.71516917  0.13970923  0.07737756     0.00100
C1145       C  0.73152149  0.13760498  0.10865455    -0.11620
C1146       C  0.73822183  0.10838610  0.12435102     0.02310
H1147       H  0.69863175  0.06055174  0.06903145     0.15290
H1148       H  0.74119373  0.15895233  0.11995866     0.15290
C1149       C  0.75986414  0.10866472  0.15298992     0.36940
C1150       C  0.68657923  0.11162828  0.03090011     0.36850
N1151       N  0.77731507  0.10934242  0.17578872    -0.43400
N1152       N  0.67363806  0.11159894  0.00481311    -0.43400
C1153       C  0.75747865  0.40264168  0.06783282     0.00190
C1154       C  0.72861046  0.41931224  0.07092525    -0.11680
C1155       C  0.72673179  0.44894992  0.08687934     0.02430
C1156       C  0.75413313  0.46295364  0.10007641     0.00100
C1157       C  0.78328723  0.44703054  0.09627783    -0.11620
C1158       C  0.78522640  0.41716843  0.07999020     0.02310
H1159       H  0.70707169  0.40878347  0.06147078     0.15290
H1160       H  0.80439524  0.45760461  0.10673440     0.15290
C1161       C  0.81556391  0.40135450  0.07772031     0.36940
C1162       C  0.69603718  0.46366865  0.09129687     0.36850
N1163       N  0.83991052  0.38870946  0.07586043    -0.43400
N1164       N  0.67150006  0.47547208  0.09505301    -0.43400
C1165       C  0.98962856  0.26125960  0.71278750     0.00190
C1166       C  0.96434698  0.27712111  0.72827420    -0.11680
C1167       C  0.96136017  0.27730971  0.76387072     0.02430
C1168       C  0.98331847  0.25988431  0.78461717     0.00100
C1169       C  0.50780498  0.24292497  0.76829002    -0.11620
C1170       C  0.51200220  0.24492915  0.73314065     0.02310
H1171       H  0.94724103  0.28992755  0.71248227     0.15290
H1172       H  0.52466278  0.22881827  0.78301266     0.15290
C1173       C  0.54107545  0.23278190  0.71903273     0.36940
C1174       C  0.93634782  0.29682886  0.77780358     0.36850
N1175       N  0.56501227  0.22412218  0.70830318    -0.43400
N1176       N  0.91604031  0.31242100  0.78855732    -0.43400
C1177       C  0.75454109  0.01052256  0.71406434     0.00190
C1178       C  0.76668878  0.03793264  0.72958109    -0.11680
C1179       C  0.76613918  0.04170977  0.76519308     0.02430
C1180       C  0.75270242  0.01791477  0.78604839     0.00100
C1181       C  0.74102587  0.49035762  0.77027958    -0.11620
C1182       C  0.74239202  0.48623421  0.73497035     0.02310
H1183       H  0.77637692  0.05661358  0.71378665     0.15290
H1184       H  0.73061272  0.47176923  0.78561850     0.15290
C1185       C  0.73215774  0.45627437  0.72096702     0.36940
C1186       C  0.78038372  0.06973460  0.77949495     0.36850
N1187       N  0.72411591  0.43223513  0.70972314    -0.43400
N1188       N  0.79174037  0.09227848  0.79087410    -0.43400
C1189       C  0.74854183  0.01173769  0.28729029     0.00190
C1190       C  0.73420934  0.48707685  0.26895748    -0.11680
C1191       C  0.73265849  0.48767927  0.23324766     0.02430
C1192       C  0.74604381  0.01319595  0.21501833     0.00100
C1193       C  0.76043154  0.03781470  0.23338414    -0.11620
C1194       C  0.76154354  0.03748049  0.26908439     0.02310
H1195       H  0.72397078  0.46729184  0.28264660     0.15290
H1196       H  0.77066472  0.05760173  0.21974624     0.15290
C1197       C  0.77481844  0.06460229  0.28629895     0.36940
C1198       C  0.71595065  0.46255224  0.21614869     0.36850
N1199       N  0.78542141  0.08637774  0.30003277    -0.43400
N1200       N  0.70258223  0.44239966  0.20243641    -0.43400
C1201       C  0.99342451  0.25481116  0.28489899     0.00190
C1202       C  0.51249522  0.23452500  0.26538224    -0.11680
C1203       C  0.51038357  0.23496929  0.22969559     0.02430
C1204       C  0.99000680  0.25730198  0.21300377     0.00100
C1205       C  0.96974036  0.27621985  0.23293097    -0.11620
C1206       C  0.97055746  0.27426108  0.26846192     0.02310
H1207       H  0.52900834  0.21833113  0.27805616     0.15290
H1208       H  0.95321457  0.29276072  0.22084468     0.15290
C1209       C  0.94633667  0.29071868  0.28747251     0.36940
C1210       C  0.52833471  0.21135270  0.21109215     0.36850
N1211       N  0.92637838  0.30319511  0.30256727    -0.43400
N1212       N  0.54261475  0.19235167  0.19617562    -0.43400
C1213       C  0.51778420  0.37389438  0.56735903     0.00190
C1214       C  0.53995817  0.36421027  0.59210004    -0.11680
C1215       C  0.53675857  0.33496114  0.60919214     0.02430
C1216       C  0.01099184  0.31517496  0.60144358     0.00100
C1217       C  0.99016714  0.32409035  0.57508282    -0.11620
C1218       C  0.99336304  0.35310003  0.55805801     0.02310
H1219       H  0.55890108  0.38002906  0.59907186     0.15290
H1220       H  0.97058654  0.30886550  0.56862399     0.15290
C1221       C  0.97101487  0.36116983  0.53127593     0.36940
C1222       C  0.56011914  0.32574620  0.63445322     0.36850
N1223       N  0.95316324  0.36739313  0.50971415    -0.43400
N1224       N  0.57887535  0.31828904  0.65464979    -0.43400
C1225       C  0.97979137  0.13946595  0.57243215     0.00190
C1226       C  0.49819089  0.14214546  0.60219090    -0.11680
C1227       C  0.50237420  0.17122039  0.61815992     0.02430
C1228       C  0.98652306  0.19870596  0.60570522     0.00100
C1229       C  0.96719236  0.19619579  0.57650289    -0.11620
C1230       C  0.96387994  0.16687570  0.55962830     0.02310
H1231       H  0.51059267  0.12142150  0.61259045     0.15290
H1232       H  0.95496101  0.21723024  0.56667682     0.15290
C1233       C  0.94530658  0.16599072  0.52868237     0.36940
C1234       C  0.52494078  0.17201622  0.64584137     0.36850
N1235       N  0.93042412  0.16533633  0.50384751    -0.43400
N1236       N  0.54336727  0.17150201  0.66770992    -0.43400
C1237       C  0.52161737  0.37802254  0.42433729     0.00190
C1238       C  0.00783020  0.37725028  0.39176918    -0.11680
C1239       C  0.00190267  0.34866876  0.37510963     0.02430
C1240       C  0.01142267  0.31914741  0.39013415     0.00100
C1241       C  0.52712501  0.32003413  0.42204364    -0.11620
C1242       C  0.53188788  0.34899261  0.43935199     0.02310
H1243       H  0.99993427  0.39939503  0.37978721     0.15290
H1244       H  0.53520646  0.29798182  0.43394297     0.15290
C1245       C  0.54563553  0.34793019  0.47310224     0.36940
C1246       C  0.98410056  0.35137634  0.34371212     0.36850
N1247       N  0.55668946  0.34681899  0.50015630    -0.43400
N1248       N  0.97020788  0.35502655  0.31846799    -0.43400
C1249       C  0.98354166  0.20217697  0.39878026     0.00190
C1250       C  0.50383516  0.19523365  0.42641578    -0.11680
C1251       C  0.50237098  0.16606246  0.44374479     0.02430
C1252       C  0.98041806  0.14307675  0.43345153     0.00100
C1253       C  0.95871212  0.15059189  0.40750964    -0.11620
C1254       C  0.95992449  0.17989918  0.39024203     0.02310
H1255       H  0.52185425  0.21203266  0.43360212     0.15290
H1256       H  0.94164526  0.13302084  0.39977276     0.15290
C1257       C  0.93676620  0.18621477  0.36379267     0.36940
C1258       C  0.52380050  0.16002899  0.47192502     0.36850
N1259       N  0.91830501  0.19103706  0.34243897    -0.43400
N1260       N  0.54076561  0.15517986  0.49466945    -0.43400
C1261       C  0.63029313  0.49359608  0.57782166     0.00190
C1262       C  0.65321066  0.46998476  0.57048333    -0.11680
C1263       C  0.68352587  0.47075282  0.58541056     0.02430
C1264       C  0.69168571  0.99589719  0.60747599     0.00100
C1265       C  0.66885565  0.01891514  0.61536628    -0.11620
C1266       C  0.63854651  0.01789817  0.60156482     0.02310
H1267       H  0.64751871  0.45082986  0.55312458     0.15290
H1268       H  0.67482356  0.03803314  0.63274204     0.15290
C1269       C  0.61692236  0.04242572  0.61319990     0.36940
C1270       C  0.70510128  0.44459384  0.57919834     0.36850
N1271       N  0.60007733  0.06225832  0.62299162    -0.43400
N1272       N  0.72190094  0.42311852  0.57446219    -0.43400
C1273       C  0.86696750  0.02271568  0.56737028     0.00190
C1274       C  0.84794099  0.99646437  0.56049336    -0.11680
C1275       C  0.81899309  0.49272494  0.57662051     0.02430
C1276       C  0.80838922  0.01564413  0.60040420     0.00100
C1277       C  0.82706608  0.04259502  0.60646384    -0.11620
C1278       C  0.85615445  0.04630696  0.59011468     0.02310
H1279       H  0.85629327  0.47815195  0.54314221     0.15290
H1280       H  0.81923335  0.06041777  0.62460398     0.15290
C1281       C  0.87536437  0.07328161  0.59869221     0.36940
C1282       C  0.80194517  0.46392325  0.56985991     0.36850
N1283       N  0.89088224  0.09480970  0.60558628    -0.43400
N1284       N  0.78872352  0.44063470  0.56405904    -0.43400
C1285       C  0.63183629  0.49431312  0.42928873     0.00190
C1286       C  0.64500488  0.02436410  0.42278685    -0.11680
C1287       C  0.67406597  0.02723816  0.40684862     0.02430
C1288       C  0.69091523  0.99974060  0.39705671     0.00100
C1289       C  0.67852735  0.46955599  0.40408629    -0.11620
C1290       C  0.64920931  0.46660105  0.42025973     0.02310
H1291       H  0.63244907  0.04596470  0.43004316     0.15290
H1292       H  0.69158857  0.44834688  0.39653383     0.15290
C1293       C  0.63709199  0.43508443  0.42599280     0.36940
C1294       C  0.68591667  0.05876149  0.40017298     0.36850
N1295       N  0.62742719  0.40978260  0.43058727    -0.43400
N1296       N  0.69543210  0.08397903  0.39475607    -0.43400
C1297       C  0.80719778  0.01632522  0.39865630     0.00190
C1298       C  0.82442948  0.04456924  0.39575995    -0.11680
C1299       C  0.85381492  0.04755643  0.41207103     0.02430
C1300       C  0.86652592  0.02169543  0.43107327     0.00100
C1301       C  0.84891664  0.49379134  0.43443924    -0.11620
C1302       C  0.81949222  0.49097525  0.41864967     0.02310
H1303       H  0.81505035  0.06413594  0.38039883     0.15290
H1304       H  0.85849096  0.47380687  0.44905695     0.15290
C1305       C  0.80308210  0.46121664  0.42196760     0.36940
C1306       C  0.87109468  0.07661410  0.40748855     0.36850
N1307       N  0.78985479  0.43741949  0.42459363    -0.43400
N1308       N  0.88491756  0.09993302  0.40383661    -0.43400
O1309       O  0.91539880  0.99609705  0.43949646    -0.74950
O1310       O  0.90821816  0.54533759  0.46302390    -0.53850
C1311       C  0.89886665  0.52140014  0.44534119     0.78780
O1312       O  0.99202678  0.92294705  0.56129671    -0.59550
O1313       O  0.54035661  0.91695195  0.53657784    -0.52580
C1314       C  0.51722692  0.90690774  0.55458599     0.70800
O1315       O  0.91554388  0.99678587  0.55959222    -0.74110
O1316       O  0.90844109  0.54604660  0.53542384    -0.54670
C1317       C  0.89915904  0.52222884  0.55337868     0.76800
O1318       O  0.99472302  0.92567178  0.43573049    -0.59250
O1319       O  0.54126731  0.91724608  0.46404121    -0.52370
C1320       C  0.51953490  0.90889882  0.44279441     0.73390
Zr1321     Zr  0.96841756  0.97546391  0.44940044     2.54710
O1322       O  0.93095580  0.93244269  0.44349559    -0.79820
O1323       O  0.97133374  0.98174251  0.38776792    -0.93230
Zr1324     Zr  0.96814086  0.97494585  0.55029186     2.64680
O1325       O  0.92690532  0.93616542  0.55976653    -0.98190
O1326       O  0.97481307  0.98132424  0.61158284    -0.80250
O1327       O  0.94567165  0.99613988  0.49954485    -0.83610
O1328       O  0.99017922  0.95329052  0.49996160    -2.18320
O1329       O  0.58206414  0.51814591  0.43668755    -0.67000
O1330       O  0.59182586  0.97121099  0.46470008    -0.51560
C1331       C  0.59974229  0.99394710  0.44433100     0.71770
O1332       O  0.50668962  0.59212764  0.56050125    -0.59900
O1333       O  0.95865493  0.59918940  0.53526965    -0.51880
C1334       C  0.98141303  0.60840303  0.55459101     0.73580
O1335       O  0.58113183  0.51803581  0.56553418    -0.71300
O1336       O  0.59142265  0.97107242  0.53909594    -0.49980
C1337       C  0.59890705  0.99379015  0.55978202     0.74960
O1338       O  0.50824489  0.59488356  0.44088689    -0.66630
O1339       O  0.95904954  0.59936099  0.46377893    -0.53830
C1340       C  0.98243942  0.61025780  0.44687556     0.73340
Zr1341     Zr  0.53104919  0.54183688  0.44952466     2.77540
O1342       O  0.56989712  0.58356771  0.44294607    -0.97380
O1343       O  0.52418492  0.53783124  0.38801723    -0.78200
Zr1344     Zr  0.53076203  0.54098840  0.55014737     2.70070
O1345       O  0.57039108  0.58211686  0.55446707    -0.79450
O1346       O  0.52442019  0.53807819  0.61172901    -0.98530
Zr1347     Zr  0.95445199  0.55206466  0.49935197     2.21500
Zr1348     Zr  0.54550999  0.96430687  0.50073149     2.11130
O1349       O  0.55391506  0.52053603  0.50017913    -2.47220
O1350       O  0.50917723  0.56330961  0.49973954    -0.79240
O1351       O  0.52310920  0.98601282  0.44904856    -0.71430
O1352       O  0.97627010  0.53055535  0.55115155    -2.32390
O1353       O  0.97644222  0.53116182  0.44785927    -2.28600
O1354       O  0.52289381  0.98532406  0.55187277    -0.73190
H1355       H  0.98645444  0.93066077  0.49939548     0.78800
H1356       H  0.96653132  0.54011996  0.57088804     0.79890
H1357       H  0.57609682  0.52526348  0.50066344     0.82120
H1358       H  0.96654962  0.54076259  0.42797172     0.79720
H1359       H  0.95687708  0.99515649  0.61847043     0.42760
H1360       H  0.54024904  0.52200277  0.61951257     0.41730
H1361       H  0.57413194  0.58866843  0.53056787     0.41410
H1362       H  0.58668542  0.57831693  0.45981582     0.39340
H1363       H  0.53329011  0.51668311  0.38220737     0.42470
H1364       H  0.95460376  0.99759926  0.38194816     0.37260
H1365       H  0.92375622  0.92835241  0.46704897     0.43370
H1366       H  0.92833485  0.92147223  0.54015105     0.39790
H1367       H  0.57962412  0.57970109  0.42044583     0.44710
H1368       H  0.96345136  0.96136984  0.37860926     0.43430
H1369       H  0.93389175  0.92330653  0.57974415     0.43570
H1370       H  0.53241561  0.55863899  0.62024951     0.43920
C1371       C  0.98945574  0.73128270  0.37787235     0.03470
C1372       C  0.99608227  0.76080738  0.39341172    -0.12670
C1373       C  0.00467098  0.78757326  0.37370884     0.00980
C1374       C  0.00627113  0.78403640  0.33811293    -0.11200
C1375       C  0.99734900  0.75568084  0.32233493     0.03470
C1376       C  0.99042126  0.72906499  0.34217397    -0.10620
H1377       H  0.99430166  0.76287337  0.42084115     0.09060
H1378       H  0.01425346  0.80333838  0.32215896     0.06590
H1379       H  0.98572432  0.70668506  0.32958870     0.06440
C1380       C  0.72097840  0.50264631  0.37869438     0.03470
C1381       C  0.74904106  0.50733024  0.39687927    -0.12670
C1382       C  0.77718982  0.51306471  0.37952820     0.00980
C1383       C  0.77698314  0.51447791  0.34376094    -0.11200
C1384       C  0.74887409  0.51027295  0.32522595     0.03470
C1385       C  0.72096267  0.50414356  0.34298242    -0.10620
H1386       H  0.74891908  0.50678092  0.42451686     0.09060
H1387       H  0.79886987  0.51816643  0.33037860     0.06590
H1388       H  0.69900880  0.50138856  0.32908133     0.06440
C1389       C  0.72314733  0.49896047  0.62398907     0.03470
C1390       C  0.75034246  0.50385204  0.60460234    -0.12670
C1391       C  0.77923734  0.51090303  0.62068805     0.00980
C1392       C  0.78047973  0.51324166  0.65650459    -0.11200
C1393       C  0.75350243  0.50816252  0.67616743     0.03470
C1394       C  0.72499534  0.50133644  0.65961904    -0.10620
H1395       H  0.74875993  0.50326121  0.57702516     0.09060
H1396       H  0.80261507  0.51836043  0.66914052     0.06590
H1397       H  0.70381760  0.49857744  0.67454231     0.06440
C1398       C  0.99011315  0.72986133  0.62289966     0.03470
C1399       C  0.98614601  0.73203512  0.65825982    -0.12670
C1400       C  0.99171157  0.76059857  0.67531793     0.00980
C1401       C  0.00026783  0.78770172  0.65684861    -0.11200
C1402       C  0.00397435  0.78605553  0.62131629     0.03470
C1403       C  0.99872069  0.75706483  0.60446288    -0.10620
H1404       H  0.97909066  0.71128795  0.67273753     0.09060
H1405       H  0.00389182  0.80998899  0.67009651     0.06590
H1406       H  0.00184008  0.75558912  0.57710691     0.06440
C1407       C  0.75156592  0.99234593  0.12081088     0.03470
C1408       C  0.75378376  0.98992109  0.15641725    -0.12670
C1409       C  0.74447579  0.51555659  0.17711632     0.00980
C1410       C  0.73377993  0.54399890  0.16163618    -0.11200
C1411       C  0.73413672  0.54798738  0.12598600     0.03470
C1412       C  0.74243065  0.52157218  0.10566796    -0.10620
H1413       H  0.76163961  0.96762635  0.16793900     0.09060
H1414       H  0.72524900  0.56321176  0.17762774     0.06590
H1415       H  0.74161555  0.52349553  0.07812131     0.06440
O1416       O  0.73015553  0.85504913  0.93995629    -0.74950
O1417       O  0.77863334  0.85916707  0.96483241    -0.53850
C1418       C  0.75556088  0.87021811  0.94651535     0.78780
O1419       O  0.65676049  0.78086674  0.06478671    -0.59550
O1420       O  0.64650961  0.73491820  0.03615476    -0.52580
C1421       C  0.63900177  0.75740546  0.05703311     0.70800
O1422       O  0.73128045  0.85421752  0.06053956    -0.74110
O1423       O  0.77931577  0.85878618  0.03560188    -0.54670
C1424       C  0.75644241  0.86967748  0.05387183     0.76800
O1425       O  0.65462995  0.78286643  0.93608004    -0.59250
O1426       O  0.64555175  0.73567212  0.96298948    -0.52370
C1427       C  0.63730407  0.75881027  0.94286634     0.73390
Zr1428     Zr  0.70594646  0.80400397  0.94982244     2.54710
O1429       O  0.66630956  0.84638370  0.94526633    -0.79820
O1430       O  0.71050016  0.80086572  0.88807679    -0.93230
Zr1431     Zr  0.70742800  0.80284144  0.05064913     2.64680
O1432       O  0.66889318  0.84611197  0.05651062    -0.98190
O1433       O  0.71416292  0.79790610  0.11217139    -0.80250
O1434       O  0.72865986  0.82433864  0.00027517    -0.83610
O1435       O  0.68374452  0.78330093  0.00020874    -2.18320
O1436       O  0.74252720  0.68538114  0.93505118    -0.67000
O1437       O  0.69563701  0.67982519  0.96261844    -0.51560
C1438       C  0.71764896  0.66987919  0.94264739     0.71770
O1439       O  0.82091825  0.75355132  0.06161880    -0.59900
O1440       O  0.83032104  0.80103720  0.03579027    -0.51880
C1441       C  0.83863528  0.77722228  0.05508901     0.73580
O1442       O  0.74207073  0.68642567  0.06525011    -0.71300
O1443       O  0.69585710  0.67942352  0.03660015    -0.49980
C1444       C  0.71724196  0.67052121  0.05842288     0.74960
O1445       O  0.82072783  0.75502311  0.93766859    -0.66630
O1446       O  0.82850715  0.80337492  0.96291906    -0.53830
C1447       C  0.83723908  0.77971542  0.94423499     0.73340
Zr1448     Zr  0.76807409  0.73543510  0.94792691     2.77540
O1449       O  0.80750864  0.69345836  0.93925772    -0.97380
O1450       O  0.76206210  0.74369966  0.88672942    -0.78200
Zr1451     Zr  0.76933657  0.73378355  0.04844795     2.70070
O1452       O  0.80418856  0.68768630  0.04212062    -0.79450
O1453       O  0.77244569  0.73448104  0.11044161    -0.98530
Zr1454     Zr  0.78340472  0.81114035  0.99997946     2.21500
Zr1455     Zr  0.69194230  0.72671900  0.99933248     2.11130
O1456       O  0.74674441  0.71337223  0.99825722    -2.47220
O1457       O  0.79160730  0.75490520  0.99848884    -0.79240
O1458       O  0.71345490  0.74799548  0.94781847    -0.71430
O1459       O  0.76179045  0.78975336  0.05121012    -2.32390
O1460       O  0.76047075  0.79148077  0.94816683    -2.28600
O1461       O  0.71502622  0.74678649  0.05066428    -0.73190
H1462       H  0.66158527  0.78880531  0.00039265     0.78800
H1463       H  0.77199981  0.79839268  0.07116805     0.79890
H1464       H  0.75003463  0.69055359  0.99847134     0.82120
H1465       H  0.77008185  0.80103346  0.92842796     0.79720
H1466       H  0.73015134  0.81393113  0.11815242     0.42760
H1467       H  0.75036870  0.73237172  0.11797568     0.41730
H1468       H  0.81554031  0.69170776  0.02060679     0.41490
H1469       H  0.80238193  0.67659862  0.95597243     0.39340
H1470       H  0.74141283  0.73434569  0.88103919     0.42470
H1471       H  0.72796275  0.81526355  0.88233421     0.37260
H1472       H  0.66383245  0.85415124  0.96891944     0.43370
H1473       H  0.65161606  0.84090538  0.04046339     0.39790
H1474       H  0.80241274  0.68418427  0.91673741     0.44710
H1475       H  0.69136242  0.81201622  0.87926995     0.43430
H1476       H  0.65981787  0.84326583  0.07948462     0.43570
H1477       H  0.78267339  0.71385935  0.11665418     0.43920
C1478       C  0.96091720  0.77317615  0.12220929     0.03470
C1479       C  0.96114512  0.76731889  0.15749055    -0.12670
C1480       C  0.98964269  0.76186691  0.17527128     0.00980
C1481       C  0.51789404  0.76208901  0.15696898    -0.11200
C1482       C  0.51764383  0.76609950  0.12157096     0.03470
C1483       C  0.98925376  0.77226986  0.10420662    -0.10620
H1484       H  0.93894201  0.76647997  0.17087457     0.09060
H1485       H  0.54030626  0.75931283  0.17011395     0.06590
H1486       H  0.98911963  0.77535030  0.07674714     0.06440
C1487       C  0.75177130  0.99301932  0.87919852     0.03470
C1488       C  0.75738486  0.99302531  0.84413279    -0.12670
C1489       C  0.75074748  0.52027720  0.82408305     0.00980
C1490       C  0.73994352  0.54832391  0.84037818    -0.11200
C1491       C  0.73546120  0.54895845  0.87599690     0.03470
C1492       C  0.74099011  0.52090920  0.89493022    -0.10620
H1493       H  0.76564720  0.97119286  0.83226115     0.09060
H1494       H  0.73491657  0.56954677  0.82544004     0.06590
H1495       H  0.73652502  0.52057109  0.92210987     0.06440
C1496       C  0.95724439  0.76812833  0.87752666     0.03470
C1497       C  0.95607421  0.76301030  0.84214227    -0.12670
C1498       C  0.98379545  0.76155125  0.82284034     0.00980
C1499       C  0.51286044  0.76215829  0.84029178    -0.11200
C1500       C  0.51464731  0.76609264  0.87571691     0.03470
C1501       C  0.98662643  0.76984582  0.89411239    -0.10620
H1502       H  0.93339865  0.76001759  0.82991223     0.09060
H1503       H  0.53452368  0.75967974  0.82627951     0.06590
H1504       H  0.98769139  0.77428515  0.92128669     0.06440
C1505       C  0.71688671  0.63709590  0.92939358     0.00190
C1506       C  0.69846088  0.62968455  0.90074797    -0.11680
C1507       C  0.70308997  0.60063752  0.88346480     0.02430
C1508       C  0.72712863  0.57900374  0.89442147     0.00100
C1509       C  0.74432423  0.58614559  0.92413257    -0.11620
C1510       C  0.73914357  0.61453723  0.94174324     0.02310
H1511       H  0.68124017  0.64697144  0.89124450     0.15290
H1512       H  0.76266039  0.56986055  0.93321213     0.15290
C1513       C  0.75759111  0.62039215  0.97216562     0.36940
C1514       C  0.68259807  0.59347926  0.85507354     0.36850
N1515       N  0.77223481  0.62492510  0.99663823    -0.43400
N1516       N  0.66610448  0.58771512  0.83235778    -0.43400
C1517       C  0.75365617  0.96281889  0.89875304     0.00190
C1518       C  0.78274119  0.94686419  0.90332645    -0.11680
C1519       C  0.78457402  0.91725565  0.92026623     0.02430
C1520       C  0.75674262  0.90297610  0.93212977     0.00100
C1521       C  0.72792230  0.91967280  0.92826232    -0.11620
C1522       C  0.72616345  0.94915599  0.91181315     0.02310
H1523       H  0.80395501  0.95746266  0.89341782     0.15290
H1524       H  0.70635588  0.90936774  0.93766634     0.15290
C1525       C  0.69555615  0.96421193  0.90725158     0.36940
C1526       C  0.81500499  0.90182004  0.92414337     0.36850
N1527       N  0.67106387  0.97628780  0.90357677    -0.43400
N1528       N  0.83951612  0.88969712  0.92745781    -0.43400
C1529       C  0.87069561  0.77614839  0.07121565     0.00190
C1530       C  0.88916302  0.80380392  0.07212979    -0.11680
C1531       C  0.91889478  0.80354365  0.08828245     0.02430
C1532       C  0.93053838  0.77530231  0.10376171     0.00100
C1533       C  0.91268585  0.74778808  0.10243614    -0.11620
C1534       C  0.88331351  0.74769808  0.08645793     0.02310
H1535       H  0.88022179  0.82579399  0.06079074     0.15290
H1536       H  0.92191243  0.72601645  0.11413666     0.15290
C1537       C  0.86747936  0.71746577  0.08654677     0.36940
C1538       C  0.93658433  0.83261977  0.08969618     0.36850
N1539       N  0.85565937  0.69280950  0.08749094    -0.43400
N1540       N  0.95078383  0.85592672  0.09095237    -0.43400
C1541       C  0.60719884  0.75822734  0.07242636     0.00190
C1542       C  0.59407155  0.78836728  0.08033381    -0.11680
C1543       C  0.56470343  0.79131771  0.09572625     0.02430
C1544       C  0.54753089  0.76386128  0.10304601     0.00100
C1545       C  0.56012272  0.73369153  0.09505609    -0.11620
C1546       C  0.58982609  0.73060840  0.07989560     0.02310
H1547       H  0.60687084  0.80990313  0.07467468     0.15290
H1548       H  0.54698379  0.71251862  0.10138976     0.15290
C1549       C  0.60234921  0.69895504  0.07382485     0.36940
C1550       C  0.55309871  0.82266527  0.10491445     0.36850
N1551       N  0.61230329  0.67355226  0.06891946    -0.43400
N1552       N  0.54383621  0.84771984  0.11251215    -0.43400
C1553       C  0.92747468  0.77257088  0.89671101     0.00190
C1554       C  0.90477106  0.79460162  0.88429896    -0.11680
C1555       C  0.87552348  0.79820398  0.90018596     0.02430
C1556       C  0.86886086  0.77997611  0.92936663     0.00100
C1557       C  0.89158453  0.75839947  0.94222287    -0.11620
C1558       C  0.92071483  0.75448359  0.92617849     0.02310
H1559       H  0.90967673  0.80857406  0.86168458     0.15290
H1560       H  0.88611154  0.74381693  0.96425915     0.15290
C1561       C  0.94233635  0.73038900  0.93924190     0.36940
C1562       C  0.85199880  0.81908695  0.88485830     0.36850
N1563       N  0.95965951  0.71107798  0.94971629    -0.43400
N1564       N  0.83303025  0.83553754  0.87233532    -0.43400
C1565       C  0.54590272  0.76516362  0.89337559     0.00190
C1566       C  0.54977770  0.74659258  0.92311855    -0.11680
C1567       C  0.57913384  0.74368846  0.93966975     0.02430
C1568       C  0.60571484  0.75898328  0.92599574     0.00100
C1569       C  0.60165575  0.77757376  0.89627017    -0.11620
C1570       C  0.57228534  0.78129011  0.88039996     0.02310
H1571       H  0.52977377  0.73413117  0.93346404     0.15290
H1572       H  0.62153789  0.78991854  0.88547708     0.15290
C1573       C  0.56997842  0.80288747  0.85162991     0.36940
C1574       C  0.58067506  0.72602757  0.97127857     0.36850
N1575       N  0.56834862  0.82002224  0.82844395    -0.43400
N1576       N  0.58146318  0.71189660  0.99667067    -0.43400
C1577       C  0.72643682  0.57986799  0.11029468     0.00190
C1578       C  0.70811255  0.58203757  0.08013095    -0.11680
C1579       C  0.70282441  0.61148928  0.06336325     0.02430
C1580       C  0.71516918  0.63970923  0.07737756     0.00100
C1581       C  0.73152150  0.63760498  0.10865455    -0.11620
C1582       C  0.73822184  0.60838610  0.12435101     0.02310
H1583       H  0.69863175  0.56055174  0.06903145     0.15290
H1584       H  0.74119374  0.65895233  0.11995866     0.15290
C1585       C  0.75986415  0.60866471  0.15298991     0.36940
C1586       C  0.68657922  0.61162829  0.03090011     0.36850
N1587       N  0.77731509  0.60934242  0.17578871    -0.43400
N1588       N  0.67363805  0.61159895  0.00481311    -0.43400
C1589       C  0.75747865  0.90264169  0.06783282     0.00190
C1590       C  0.72861046  0.91931224  0.07092525    -0.11680
C1591       C  0.72673179  0.94894992  0.08687934     0.02430
C1592       C  0.75413313  0.96295364  0.10007641     0.00100
C1593       C  0.78328723  0.94703054  0.09627784    -0.11620
C1594       C  0.78522640  0.91716843  0.07999020     0.02310
H1595       H  0.70707169  0.90878348  0.06147078     0.15290
H1596       H  0.80439524  0.95760461  0.10673440     0.15290
C1597       C  0.81556391  0.90135450  0.07772031     0.36940
C1598       C  0.69603718  0.96366865  0.09129687     0.36850
N1599       N  0.83991052  0.88870946  0.07586043    -0.43400
N1600       N  0.67150006  0.97547208  0.09505301    -0.43400
C1601       C  0.98962855  0.76125960  0.71278750     0.00190
C1602       C  0.96434697  0.77712111  0.72827419    -0.11680
C1603       C  0.96136017  0.77730971  0.76387072     0.02430
C1604       C  0.98331847  0.75988430  0.78461717     0.00100
C1605       C  0.50780499  0.74292496  0.76829003    -0.11620
C1606       C  0.51200221  0.74492914  0.73314065     0.02310
H1607       H  0.94724103  0.78992756  0.71248227     0.15290
H1608       H  0.52466279  0.72881826  0.78301267     0.15290
C1609       C  0.54107546  0.73278188  0.71903274     0.36940
C1610       C  0.93634782  0.79682887  0.77780358     0.36850
N1611       N  0.56501228  0.72412217  0.70830320    -0.43400
N1612       N  0.91604032  0.81242102  0.78855733    -0.43400
C1613       C  0.75454109  0.51052256  0.71406434     0.00190
C1614       C  0.76668878  0.53793264  0.72958110    -0.11680
C1615       C  0.76613919  0.54170976  0.76519308     0.02430
C1616       C  0.75270242  0.51791477  0.78604840     0.00100
C1617       C  0.74102588  0.99035761  0.77027958    -0.11620
C1618       C  0.74239204  0.98623421  0.73497034     0.02310
H1619       H  0.77637694  0.55661357  0.71378666     0.15290
H1620       H  0.73061275  0.97176922  0.78561849     0.15290
C1621       C  0.73215778  0.95627436  0.72096701     0.36940
C1622       C  0.78038374  0.56973458  0.77949496     0.36850
N1623       N  0.72411596  0.93223511  0.70972314    -0.43400
N1624       N  0.79174040  0.59227846  0.79087411    -0.43400
C1625       C  0.74854183  0.51173769  0.28729028     0.00190
C1626       C  0.73420934  0.98707685  0.26895749    -0.11680
C1627       C  0.73265848  0.98767927  0.23324766     0.02430
C1628       C  0.74604382  0.51319595  0.21501833     0.00100
C1629       C  0.76043154  0.53781470  0.23338414    -0.11620
C1630       C  0.76154354  0.53748050  0.26908439     0.02310
H1631       H  0.72397078  0.96729184  0.28264660     0.15290
H1632       H  0.77066472  0.55760173  0.21974624     0.15290
C1633       C  0.77481844  0.56460229  0.28629894     0.36940
C1634       C  0.71595064  0.96255224  0.21614870     0.36850
N1635       N  0.78542141  0.58637775  0.30003276    -0.43400
N1636       N  0.70258223  0.94239966  0.20243641    -0.43400
C1637       C  0.99342451  0.75481116  0.28489899     0.00190
C1638       C  0.51249523  0.73452500  0.26538223    -0.11680
C1639       C  0.51038358  0.73496929  0.22969559     0.02430
C1640       C  0.99000680  0.75730198  0.21300377     0.00100
C1641       C  0.96974036  0.77621984  0.23293097    -0.11620
C1642       C  0.97055746  0.77426107  0.26846191     0.02310
H1643       H  0.52900835  0.71833113  0.27805615     0.15290
H1644       H  0.95321457  0.79276071  0.22084468     0.15290
C1645       C  0.94633666  0.79071867  0.28747251     0.36940
C1646       C  0.52833471  0.71135270  0.21109214     0.36850
N1647       N  0.92637836  0.80319508  0.30256726    -0.43400
N1648       N  0.54261475  0.69235167  0.19617561    -0.43400
C1649       C  0.51778421  0.87389438  0.56735904     0.00190
C1650       C  0.53995817  0.86421028  0.59210005    -0.11680
C1651       C  0.53675858  0.83496115  0.60919214     0.02430
C1652       C  0.01099183  0.81517496  0.60144357     0.00100
C1653       C  0.99016713  0.82409034  0.57508282    -0.11620
C1654       C  0.99336303  0.85310003  0.55805801     0.02310
H1655       H  0.55890108  0.88002907  0.59907187     0.15290
H1656       H  0.97058653  0.80886550  0.56862399     0.15290
C1657       C  0.97101485  0.86116983  0.53127594     0.36940
C1658       C  0.56011915  0.82574621  0.63445323     0.36850
N1659       N  0.95316322  0.86739314  0.50971415    -0.43400
N1660       N  0.57887536  0.81828906  0.65464980    -0.43400
C1661       C  0.97979135  0.63946595  0.57243215     0.00190
C1662       C  0.49819092  0.64214546  0.60219089    -0.11680
C1663       C  0.50237423  0.67122039  0.61815991     0.02430
C1664       C  0.98652305  0.69870596  0.60570522     0.00100
C1665       C  0.96719235  0.69619579  0.57650289    -0.11620
C1666       C  0.96387992  0.66687569  0.55962830     0.02310
H1667       H  0.51059271  0.62142151  0.61259044     0.15290
H1668       H  0.95496100  0.71723023  0.56667682     0.15290
C1669       C  0.94530656  0.66599072  0.52868237     0.36940
C1670       C  0.52494082  0.67201623  0.64584135     0.36850
N1671       N  0.93042411  0.66533633  0.50384751    -0.43400
N1672       N  0.54336732  0.67150202  0.66770989    -0.43400
C1673       C  0.52161738  0.87802254  0.42433729     0.00190
C1674       C  0.00783018  0.87725028  0.39176918    -0.11680
C1675       C  0.00190265  0.84866876  0.37510964     0.02430
C1676       C  0.01142265  0.81914741  0.39013415     0.00100
C1677       C  0.52712502  0.82003413  0.42204363    -0.11620
C1678       C  0.53188788  0.84899261  0.43935199     0.02310
H1679       H  0.99993424  0.89939503  0.37978722     0.15290
H1680       H  0.53520647  0.79798182  0.43394296     0.15290
C1681       C  0.54563553  0.84793020  0.47310224     0.36940
C1682       C  0.98410052  0.85137633  0.34371214     0.36850
N1683       N  0.55668947  0.84681899  0.50015630    -0.43400
N1684       N  0.97020783  0.85502654  0.31846801    -0.43400
C1685       C  0.98354166  0.70217697  0.39878026     0.00190
C1686       C  0.50383517  0.69523365  0.42641578    -0.11680
C1687       C  0.50237099  0.66606246  0.44374480     0.02430
C1688       C  0.98041806  0.64307674  0.43345153     0.00100
C1689       C  0.95871212  0.65059188  0.40750963    -0.11620
C1690       C  0.95992449  0.67989918  0.39024202     0.02310
H1691       H  0.52185425  0.71203266  0.43360212     0.15290
H1692       H  0.94164527  0.63302083  0.39977274     0.15290
C1693       C  0.93676620  0.68621476  0.36379265     0.36940
C1694       C  0.52380050  0.66002899  0.47192503     0.36850
N1695       N  0.91830502  0.69103705  0.34243895    -0.43400
N1696       N  0.54076561  0.65517986  0.49466946    -0.43400
C1697       C  0.63029312  0.99359608  0.57782166     0.00190
C1698       C  0.65321066  0.96998477  0.57048333    -0.11680
C1699       C  0.68352587  0.97075283  0.58541055     0.02430
C1700       C  0.69168571  0.49589719  0.60747599     0.00100
C1701       C  0.66885565  0.51891514  0.61536628    -0.11620
C1702       C  0.63854651  0.51789817  0.60156481     0.02310
H1703       H  0.64751871  0.95082987  0.55312458     0.15290
H1704       H  0.67482357  0.53803314  0.63274203     0.15290
C1705       C  0.61692236  0.54242572  0.61319989     0.36940
C1706       C  0.70510127  0.94459385  0.57919833     0.36850
N1707       N  0.60007733  0.56225832  0.62299161    -0.43400
N1708       N  0.72190094  0.92311852  0.57446218    -0.43400
C1709       C  0.86696751  0.52271568  0.56737028     0.00190
C1710       C  0.84794099  0.49646436  0.56049337    -0.11680
C1711       C  0.81899309  0.99272495  0.57662050     0.02430
C1712       C  0.80838922  0.51564413  0.60040421     0.00100
C1713       C  0.82706608  0.54259502  0.60646385    -0.11620
C1714       C  0.85615445  0.54630696  0.59011469     0.02310
H1715       H  0.85629327  0.97815195  0.54314221     0.15290
H1716       H  0.81923336  0.56041776  0.62460399     0.15290
C1717       C  0.87536438  0.57328160  0.59869222     0.36940
C1718       C  0.80194517  0.96392325  0.56985991     0.36850
N1719       N  0.89088224  0.59480969  0.60558629    -0.43400
N1720       N  0.78872352  0.94063470  0.56405903    -0.43400
C1721       C  0.63183629  0.99431312  0.42928873     0.00190
C1722       C  0.64500488  0.52436410  0.42278685    -0.11680
C1723       C  0.67406597  0.52723816  0.40684862     0.02430
C1724       C  0.69091523  0.49974060  0.39705671     0.00100
C1725       C  0.67852735  0.96955600  0.40408630    -0.11620
C1726       C  0.64920931  0.96660105  0.42025973     0.02310
H1727       H  0.63244907  0.54596470  0.43004316     0.15290
H1728       H  0.69158857  0.94834688  0.39653384     0.15290
C1729       C  0.63709198  0.93508443  0.42599281     0.36940
C1730       C  0.68591667  0.55876149  0.40017298     0.36850
N1731       N  0.62742719  0.90978260  0.43058727    -0.43400
N1732       N  0.69543210  0.58397903  0.39475607    -0.43400
C1733       C  0.80719778  0.51632522  0.39865629     0.00190
C1734       C  0.82442948  0.54456924  0.39575994    -0.11680
C1735       C  0.85381492  0.54755642  0.41207102     0.02430
C1736       C  0.86652593  0.52169543  0.43107326     0.00100
C1737       C  0.84891664  0.99379135  0.43443924    -0.11620
C1738       C  0.81949222  0.99097526  0.41864967     0.02310
H1739       H  0.81505035  0.56413593  0.38039883     0.15290
H1740       H  0.85849096  0.97380688  0.44905695     0.15290
C1741       C  0.80308211  0.96121664  0.42196761     0.36940
C1742       C  0.87109468  0.57661409  0.40748855     0.36850
N1743       N  0.78985480  0.93741949  0.42459363    -0.43400
N1744       N  0.88491757  0.59993302  0.40383660    -0.43400
loop_ 
_geom_bond_atom_site_label_1 
_geom_bond_atom_site_label_2 
_geom_bond_distance 
_geom_bond_site_symmetry_2 
_ccdc_geom_bond_type 
O1          Zr13   2.427       .  S
O1          C439   1.286       .  A
O2          Zr39   2.437       .  S
O2            C3   1.288       .  A
C3          O437   1.286   1_545  A
C3          C428   1.478       .  S
O4          Zr16   2.426       .  S
O4          C878   1.285       .  A
O5          Zr40   2.442       .  S
O5            C6   1.289       .  A
C6          O876   1.285   1_455  A
C6          C341   1.470       .  S
O7          Zr16   2.431       .  S
O7          C445   1.286       .  A
O8          Zr39   2.437       .  S
O8            C9   1.288       .  A
C9          O443   1.286   1_545  A
C9          C401   1.477       .  S
O10         Zr13   2.417       .  S
O10         C884   1.285       .  A
O11         Zr40   2.455       .  S
O11          C12   1.292       .  A
C12         O882   1.285   1_455  A
C12         C365   1.488       .  S
Zr13         O14   2.434       .  S
Zr13         O15   2.434       .  S
Zr13         O19   2.360       .  S
Zr13         O20   2.362       .  S
Zr13        O915   2.371       .  S
Zr13        O481   2.366       .  S
O14          H57   0.990       .  S
O15          H56   0.990       .  S
O15          H60   0.990       .  S
Zr16         O17   2.437       .  S
Zr16         O18   2.434       .  S
Zr16         O20   2.370       .  S
Zr16         O19   2.364       .  S
Zr16        O480   2.363       .  S
Zr16        O918   2.372       .  S
O17          H58   0.989       .  S
O17          H61   0.990       .  S
O18          H51   0.990       .  S
O19        Zr475   2.380       .  S
O20        Zr912   2.401       .  S
O20          H47   0.965       .  S
O21         Zr33   2.426       .  S
O21         C459   1.286   1_545  A
O22         Zr40   2.451       .  S
O22          C23   1.291       .  A
C23         O457   1.286       .  A
C23         C413   1.489       .  S
O24         Zr36   2.399       .  S
O24         C898   1.282   1_455  A
O25         Zr39   2.440       .  S
O25          C26   1.288       .  A
C26         O896   1.282       .  A
C26         C353   1.482       .  S
O27         Zr36   2.403       .  S
O27         C465   1.279   1_545  A
O28         Zr40   2.473       .  S
O28          C29   1.296       .  A
C29         O463   1.279       .  A
C29         C389   1.504       .  S
O30         Zr33   2.434       .  S
O30         C904   1.286   1_455  A
O31         Zr39   2.431       .  S
O31          C32   1.287       .  A
C32         O902   1.286       .  A
C32         C380   1.472       .  S
Zr33         O34   2.437       .  S
Zr33         O35   2.434       .  S
Zr33         O41   2.369       .  S
Zr33         O42   2.360       .  S
Zr33        O917   2.368   1_455  S
Zr33        O479   2.370   1_545  S
O34          H54   0.990       .  S
O34          H59   0.990       .  S
O35          H55   0.990       .  S
Zr36         O37   2.433       .  S
Zr36         O38   2.435       .  S
Zr36         O42   2.356       .  S
Zr36         O41   2.358       .  S
Zr36        O482   2.364   1_545  S
Zr36        O916   2.362   1_455  S
O37          H53   0.990       .  S
O38          H52   0.990       .  S
O38          H62   0.990       .  S
Zr39         O44   2.393       .  S
Zr39         O45   2.395       .  S
Zr39        O455   2.380   1_545  S
Zr39        O914   2.378       .  S
Zr40         O43   2.401       .  S
Zr40         O46   2.396       .  S
Zr40        O892   2.401   1_455  S
Zr40        O477   2.390       .  S
O41        Zr476   2.390   1_545  S
O41          H49   0.965       .  S
O42        Zr911   2.378   1_455  S
O43        Zr885   2.371   1_455  S
O43        Zr469   2.370       .  S
O44        Zr452   2.363   1_545  S
O44        Zr908   2.362       .  S
O44          H48   0.966       .  S
O45        Zr449   2.366   1_545  S
O45        Zr905   2.368       .  S
O45          H50   0.966       .  S
O46        Zr888   2.372   1_455  S
O46        Zr472   2.364       .  S
C63         C377   1.493       .  S
C63          C64   1.414       .  A
C63          C68   1.404       .  A
C64          C65   1.414       .  A
C64          H69   1.083       .  S
C65         C368   1.505       .  S
C65          C66   1.406       .  A
C66          C67   1.399       .  A
C66          H70   1.081       .  S
C67         C329   1.477       .  S
C67          C68   1.394       .  A
C68          H71   1.083       .  S
C72         C416   1.477   1_545  S
C72          C73   1.401       .  A
C72          C77   1.402       .  A
C73          C74   1.403       .  A
C73          H78   1.084       .  S
C74         C425   1.482       .  S
C74          C75   1.404       .  A
C75          C76   1.406       .  A
C75          H79   1.084       .  S
C76         C317   1.489       .  S
C76          C77   1.406       .  A
C77          H80   1.084       .  S
C81         C392   1.487       .  S
C81          C82   1.405   1_565  A
C81          C86   1.403   1_565  A
C82          C83   1.411       .  A
C82          H87   1.083       .  S
C83         C404   1.492       .  S
C83          C84   1.409       .  A
C84          C85   1.404       .  A
C84          H88   1.084       .  S
C85         C305   1.490       .  S
C85          C86   1.403       .  A
C86          H89   1.084   1_545  S
C90         C356   1.482       .  S
C90          C91   1.401       .  A
C90          C95   1.403       .  A
C91          C92   1.397       .  A
C91          H96   1.084       .  S
C92         C293   1.473       .  S
C92          C93   1.399       .  A
C93          C94   1.405       .  A
C93          H97   1.084       .  S
C94         C344   1.481       .  S
C94          C95   1.406       .  A
C95          H98   1.084       .  S
C99         C284   1.483       .  S
C99         C100   1.402       .  A
C99         C540   1.407       .  A
C100        C537   1.404       .  A
C100        H105   1.083       .  S
C101        C320   1.490       .  S
C101        C102   1.404       .  A
C101        C536   1.404   1_545  A
C102        C103   1.408       .  A
C102        H106   1.083       .  S
C103        C269   1.500       .  S
C103        C104   1.409       .  A
C104        C535   1.407   1_545  A
C104        H107   1.083       .  S
O108       Zr120   2.420       .  S
O108        C110   1.285       .  A
O109       Zr146   2.440       .  S
O109        C110   1.289       .  A
C110        C212   1.484       .  S
O111       Zr123   2.421       .  S
O111        C113   1.285       .  A
O112       Zr147   2.440   1_554  S
O112        C113   1.290       .  A
C113        C233   1.483       .  S
O114       Zr123   2.426       .  S
O114        C116   1.286       .  A
O115       Zr146   2.448   1_554  S
O115        C116   1.290       .  A
C116        C281   1.490       .  S
O117       Zr120   2.422       .  S
O117        C119   1.286       .  A
O118       Zr147   2.445       .  S
O118        C119   1.290       .  A
C119        C260   1.491       .  S
Zr120       O121   2.434       .  S
Zr120       O122   2.435       .  S
Zr120       O126   2.362   1_556  S
Zr120       O127   2.364   1_556  S
Zr120       O150   2.367       .  S
Zr120       O152   2.367       .  S
O121        H164   0.990       .  S
O122        H163   0.990       .  S
O122        H167   0.990       .  S
Zr123       O124   2.437       .  S
Zr123       O125   2.435       .  S
Zr123       O127   2.367       .  S
Zr123       O126   2.359       .  S
Zr123       O151   2.364       .  S
Zr123       O153   2.368       .  S
O124        H165   0.990       .  S
O124        H168   0.990       .  S
O125        H158   0.990       .  S
O126       Zr146   2.381   1_554  S
O127       Zr147   2.393   1_554  S
O127        H154   0.965       .  S
O128       Zr140   2.431       .  S
O128        C130   1.285       .  A
O129       Zr147   2.446       .  S
O129        C130   1.290       .  A
C130        C197   1.473       .  S
O131       Zr143   2.407       .  S
O131        C133   1.281       .  A
O132       Zr146   2.458   1_554  S
O132        C133   1.293       .  A
C133        C221   1.496       .  S
O134       Zr143   2.406       .  S
O134        C136   1.283       .  A
O135       Zr147   2.461   1_554  S
O135        C136   1.292       .  A
C136        C272   1.492       .  S
O137       Zr140   2.429       .  S
O137        C139   1.285       .  A
O138       Zr146   2.432       .  S
O138        C139   1.288       .  A
C139        C248   1.468       .  S
Zr140       O141   2.437       .  S
Zr140       O142   2.434       .  S
Zr140       O148   2.369       .  S
Zr140       O149   2.367       .  S
Zr140       O152   2.368       .  S
Zr140       O150   2.370       .  S
O141        H161   0.990       .  S
O141        H166   0.990       .  S
O142        H162   0.990       .  S
Zr143       O144   2.431       .  S
Zr143       O145   2.434       .  S
Zr143       O149   2.357   1_554  S
Zr143       O148   2.353   1_554  S
Zr143       O153   2.364       .  S
Zr143       O151   2.367       .  S
O144        H160   0.990       .  S
O145        H159   0.990       .  S
O145        H169   0.990       .  S
Zr146       O149   2.380       .  S
Zr146       O151   2.392   1_556  S
Zr146       O152   2.401       .  S
Zr147       O148   2.385       .  S
Zr147       O150   2.398       .  S
Zr147       O153   2.394   1_556  S
O148        H156   0.965       .  S
O151        H155   0.966       .  S
O152        H157   0.966       .  S
C170        C224   1.475       .  S
C170        C171   1.404       .  A
C170        C175   1.400       .  A
C171        C172   1.407       .  A
C171        H176   1.084       .  S
C172        C332   1.491       .  S
C172       C1045   1.403       .  A
C173        C174   1.398       .  A
C173       C1044   1.403   1_455  A
C173        H177   1.083       .  S
C174        C236   1.469       .  S
C174       C1047   1.400   1_455  A
C175       C1046   1.400       .  A
C175        H178   1.084       .  S
C179        C209   1.478       .  S
C179        C180   1.398       .  A
C179        C620   1.397       .  A
C180        C617   1.408       .  A
C180        H185   1.084       .  S
C181        C308   1.498       .  S
C181        C182   1.413       .  A
C181        C616   1.408   1_545  A
C182        C183   1.412       .  A
C182        H186   1.081       .  S
C183        C200   1.494       .  S
C183        C184   1.404       .  A
C184        C615   1.397   1_545  A
C184        H187   1.084       .  S
C188        C245   1.486       .  S
C188        C189   1.406       .  A
C188        C193   1.405       .  A
C189        C190   1.405       .  A
C189        H194   1.081       .  S
C190        C296   1.501       .  S
C190       C1063   1.407       .  A
C191        C192   1.401       .  A
C191       C1062   1.407   1_455  A
C191        H195   1.079       .  S
C192        C257   1.492       .  S
C192       C1065   1.403   1_455  A
C193       C1064   1.403       .  A
C193        H196   1.083       .  S
C197        C198   1.402       .  A
C197        C202   1.408       .  A
C198        C199   1.408       .  A
C198        H203   1.084       .  S
C199        C200   1.418       .  A
C199        C206   1.443       .  S
C200        C201   1.406       .  A
C201        C202   1.394       .  A
C201        H204   1.085       .  S
C202        C205   1.446       .  S
C205        N207   1.157       .  T
C206        N208   1.157       .  T
C209        C210   1.405       .  A
C209        C214   1.407       .  A
C210        C211   1.406       .  A
C210        H215   1.085       .  S
C211        C212   1.414       .  A
C211        C218   1.443       .  S
C212        C213   1.407       .  A
C213        C214   1.393       .  A
C213        H216   1.085       .  S
C214        C217   1.445       .  S
C217        N219   1.157       .  T
C218        N220   1.157       .  T
C221        C222   1.410       .  A
C221        C226   1.427       .  A
C222        C223   1.408       .  A
C222        H227   1.084       .  S
C223        C224   1.409       .  A
C223        C230   1.443       .  S
C224        C225   1.391       .  A
C225        C226   1.391       .  A
C225        H228   1.086       .  S
C226        C229   1.444       .  S
C229        N231   1.157       .  T
C230        N232   1.157       .  T
C233        C234   1.410       .  A
C233        C238   1.414       .  A
C234        C235   1.394       .  A
C234        H239   1.084       .  S
C235        C236   1.402       .  A
C235        C242   1.445       .  S
C236        C237   1.404       .  A
C237        C238   1.403       .  A
C237        H240   1.085       .  S
C238        C241   1.444       .  S
C241        N243   1.157       .  T
C242        N244   1.157       .  T
C245        C246   1.407       .  A
C245        C250   1.413       .  A
C246        C247   1.400       .  A
C246        H251   1.084       .  S
C247        C248   1.406       .  A
C247        C254   1.444       .  S
C248        C249   1.402       .  A
C249        C250   1.400       .  A
C249        H252   1.085       .  S
C250        C253   1.444       .  S
C253        N255   1.157       .  T
C254        N256   1.157       .  T
C257        C258   1.407       .  A
C257        C262   1.414       .  A
C258        C259   1.404       .  A
C258        H263   1.085       .  S
C259        C260   1.415       .  A
C259        C266   1.442       .  S
C260        C261   1.408       .  A
C261        C262   1.395       .  A
C261        H264   1.085       .  S
C262        C265   1.445       .  S
C265        N267   1.157       .  T
C266        N268   1.157       .  T
C269        C270   1.412       .  A
C269        C274   1.416       .  A
C270        C271   1.411       .  A
C270        H275   1.084       .  S
C271        C272   1.413       .  A
C271        C278   1.443       .  S
C272        C273   1.406       .  A
C273        C274   1.393       .  A
C273        H276   1.086       .  S
C274        C277   1.446       .  S
C277        N279   1.157       .  T
C278        N280   1.157       .  T
C281        C282   1.408       .  A
C281        C286   1.415       .  A
C282        C283   1.395       .  A
C282        H287   1.085       .  S
C283        C284   1.407       .  A
C283        C290   1.445       .  S
C284        C285   1.407       .  A
C285        C286   1.410       .  A
C285        H288   1.084       .  S
C286        C289   1.443       .  S
C289        N291   1.157       .  T
C290        N292   1.157       .  T
C293        C294   1.398       .  A
C293       C1170   1.404       .  A
C294        C295   1.403       .  A
C294        H299   1.085       .  S
C295        C296   1.424       .  A
C295        C302   1.443       .  S
C296       C1169   1.410       .  A
C297        C298   1.394       .  A
C297       C1168   1.410   1_455  A
C297        H300   1.083       .  S
C298       C1165   1.404   1_455  A
C298        C301   1.443       .  S
C301        N303   1.157       .  T
C302        N304   1.157       .  T
C305        C306   1.406       .  A
C305        C746   1.411   1_545  A
C306        C307   1.407       .  A
C306        H311   1.085       .  S
C307        C308   1.417       .  A
C307        C314   1.443       .  S
C308        C745   1.408   1_545  A
C309        C310   1.398       .  A
C309        C744   1.408       .  A
C309        H312   1.084       .  S
C310        C741   1.411       .  A
C310        C313   1.445       .  S
C313        N315   1.157       .  T
C314        N316   1.157       .  T
C317        C322   1.413       .  A
C317        C754   1.406   1_545  A
C318        C319   1.402       .  A
C318        C753   1.406       .  A
C318        H323   1.085       .  S
C319        C756   1.413       .  A
C319        C326   1.444       .  S
C320        C321   1.406       .  A
C320        C755   1.413   1_545  A
C321        C322   1.400       .  A
C321        H324   1.084       .  S
C322        C325   1.445       .  S
C325        N327   1.157       .  T
C326        N328   1.157       .  T
C329        C334   1.409       .  A
C329       C1202   1.400       .  A
C330        C331   1.402       .  A
C330       C1201   1.400   1_455  A
C330        H335   1.085       .  S
C331       C1204   1.419   1_455  A
C331        C338   1.444       .  S
C332        C333   1.406       .  A
C332       C1203   1.419       .  A
C333        C334   1.396       .  A
C333        H336   1.084       .  S
C334        C337   1.444       .  S
C337        N339   1.157       .  T
C338        N340   1.157       .  T
C341        C342   1.401       .  A
C341       C1218   1.412   1_455  A
C342        C343   1.404       .  A
C342        H347   1.084       .  S
C343       C1216   1.415       .  A
C343        C350   1.443       .  S
C344        C345   1.401       .  A
C344       C1215   1.415       .  A
C345        C346   1.394       .  A
C345        H348   1.085       .  S
C346       C1213   1.412       .  A
C346        C349   1.445       .  S
C349        N351   1.157       .  T
C350        N352   1.157       .  T
C353        C358   1.413       .  A
C353       C1226   1.405       .  A
C354        C355   1.386   1_655  A
C354       C1225   1.405       .  A
C354        H359   1.085   1_655  S
C355       C1228   1.409   1_455  A
C355        C362   1.443       .  S
C356        C357   1.409       .  A
C356       C1227   1.409       .  A
C357        C358   1.407       .  A
C357        H360   1.084       .  S
C358        C361   1.443       .  S
C361        N363   1.157       .  T
C362        N364   1.156       .  T
C365        C370   1.411       .  A
C365       C1238   1.401       .  A
C366        C367   1.393       .  A
C366       C1237   1.401       .  A
C366        H371   1.086       .  S
C367        C368   1.420       .  A
C367        C374   1.443       .  S
C368       C1241   1.414       .  A
C369        C370   1.410       .  A
C369       C1240   1.414       .  A
C369        H372   1.084       .  S
C370        C373   1.442       .  S
C373        N375   1.157       .  T
C374        N376   1.157       .  T
C377        C382   1.420       .  A
C377       C1250   1.406       .  A
C378        C379   1.399       .  A
C378       C1249   1.406   1_455  A
C378        H383   1.084       .  S
C379       C1252   1.409   1_455  A
C379        C386   1.445       .  S
C380        C381   1.399       .  A
C380       C1251   1.409       .  A
C381        C382   1.402       .  A
C381        H384   1.084       .  S
C382        C385   1.444       .  S
C385        N387   1.157       .  T
C386        N388   1.157       .  T
C389        C390   1.410       .  A
C389        C830   1.429       .  A
C390        C391   1.411       .  A
C390        H395   1.084       .  S
C391        C828   1.412       .  A
C391        C398   1.441       .  S
C392        C393   1.395   1_565  A
C392        C827   1.412       .  A
C393        C394   1.393       .  A
C393        H396   1.086       .  S
C394        C825   1.429   1_545  A
C394        C397   1.446       .  S
C397        N399   1.157       .  T
C398        N400   1.157       .  T
C401        C402   1.401   1_545  A
C401        C406   1.409       .  A
C402        C839   1.397       .  A
C402        H843   1.086       .  S
C403        C838   1.397       .  A
C403        C840   1.413       .  A
C403        C410   1.442       .  S
C404        C405   1.410       .  A
C404        C839   1.413   1_545  A
C405        C406   1.407       .  A
C405        H408   1.084       .  S
C406        C409   1.444       .  S
H407        C838   1.086       .  S
C409        N411   1.157       .  T
C410        N412   1.156       .  T
C413        C418   1.415       .  A
C413        C850   1.410       .  A
C414        C415   1.394       .  A
C414        C849   1.410   1_545  A
C414        H419   1.084       .  S
C415        C416   1.404   1_545  A
C415        C422   1.445       .  S
C416        C853   1.405       .  A
C417        C418   1.408       .  A
C417        C852   1.405       .  A
C417        H420   1.084       .  S
C418        C421   1.443       .  S
C421        N423   1.157       .  T
C422        N424   1.157       .  T
C425        C426   1.406       .  A
C425        C866   1.409   1_545  A
C426        C427   1.405       .  A
C426        H431   1.085       .  S
C427        C428   1.411       .  A
C427        C434   1.443       .  S
C428        C865   1.405   1_545  A
C429        C430   1.397       .  A
C429        C864   1.405       .  A
C429        H432   1.085       .  S
C430        C861   1.409       .  A
C430        C433   1.444       .  S
C433        N435   1.157       .  T
C434        N436   1.157       .  T
O437       Zr449   2.427       .  S
O438       Zr475   2.437       .  S
O438        C439   1.288       .  A
C439        C864   1.478       .  S
O440       Zr452   2.426       .  S
O440       C1314   1.285       .  A
O441       Zr476   2.442       .  S
O441        C442   1.289       .  A
C442       O1312   1.285   1_455  A
C442        C777   1.470       .  S
O443       Zr452   2.431       .  S
O444       Zr475   2.437       .  S
O444        C445   1.288       .  A
C445        C837   1.477       .  S
O446       Zr449   2.417       .  S
O446       C1320   1.285       .  A
O447       Zr476   2.455       .  S
O447        C448   1.292       .  A
C448       O1318   1.285   1_455  A
C448        C801   1.488       .  S
Zr449       O450   2.434       .  S
Zr449       O451   2.434       .  S
Zr449       O455   2.360       .  S
Zr449       O456   2.362       .  S
Zr449      O1351   2.371       .  S
O450        H493   0.990       .  S
O451        H492   0.990       .  S
O451        H496   0.990       .  S
Zr452       O453   2.437       .  S
Zr452       O454   2.434       .  S
Zr452       O456   2.370       .  S
Zr452       O455   2.364       .  S
Zr452      O1354   2.372       .  S
O453        H494   0.989       .  S
O453        H497   0.990       .  S
O454        H487   0.990       .  S
O456      Zr1348   2.401       .  S
O456        H483   0.965       .  S
O457       Zr469   2.426       .  S
O458       Zr476   2.451       .  S
O458        C459   1.291       .  A
C459        C849   1.489       .  S
O460       Zr472   2.399       .  S
O460       C1334   1.282   1_455  A
O461       Zr475   2.440       .  S
O461        C462   1.288       .  A
C462       O1332   1.282       .  A
C462        C789   1.482       .  S
O463       Zr472   2.403       .  S
O464       Zr476   2.473       .  S
O464        C465   1.296       .  A
C465        C825   1.504       .  S
O466       Zr469   2.434       .  S
O466       C1340   1.286   1_455  A
O467       Zr475   2.431       .  S
O467        C468   1.287       .  A
C468       O1338   1.286       .  A
C468        C816   1.472       .  S
Zr469       O470   2.437       .  S
Zr469       O471   2.434       .  S
Zr469       O477   2.369       .  S
Zr469       O478   2.360       .  S
Zr469      O1353   2.368   1_455  S
O470        H490   0.990       .  S
O470        H495   0.990       .  S
O471        H491   0.990       .  S
Zr472       O473   2.433       .  S
Zr472       O474   2.435       .  S
Zr472       O478   2.356       .  S
Zr472       O477   2.358       .  S
Zr472      O1352   2.362   1_455  S
O473        H489   0.990       .  S
O474        H488   0.990       .  S
O474        H498   0.990       .  S
Zr475      O1350   2.378       .  S
Zr475       O480   2.393       .  S
Zr475       O481   2.395       .  S
Zr476      O1328   2.401   1_455  S
Zr476       O479   2.401       .  S
Zr476       O482   2.396       .  S
O477        H485   0.965       .  S
O478      Zr1347   2.378   1_455  S
O479      Zr1321   2.371   1_455  S
O480      Zr1344   2.362       .  S
O480        H484   0.966       .  S
O481      Zr1341   2.368       .  S
O481        H486   0.966       .  S
O482      Zr1324   2.372   1_455  S
C499        C813   1.493       .  S
C499        C500   1.414       .  A
C499        C504   1.404       .  A
C500        C501   1.414       .  A
C500        H505   1.083       .  S
C501        C804   1.505       .  S
C501        C502   1.406       .  A
C502        C503   1.399       .  A
C502        H506   1.081       .  S
C503        C765   1.477       .  S
C503        C504   1.394       .  A
C504        H507   1.083       .  S
C508        C852   1.477       .  S
C508        C509   1.401       .  A
C508        C513   1.402       .  A
C509        C510   1.403       .  A
C509        H514   1.084       .  S
C510        C861   1.482       .  S
C510        C511   1.404       .  A
C511        C512   1.406       .  A
C511        H515   1.084       .  S
C512        C753   1.489       .  S
C512        C513   1.406       .  A
C513        H516   1.084       .  S
C517        C828   1.487       .  S
C517        C518   1.405       .  A
C517        C522   1.403       .  A
C518        C519   1.411       .  A
C518        H523   1.083       .  S
C519        C840   1.492       .  S
C519        C520   1.409       .  A
C520        C521   1.404       .  A
C520        H524   1.084       .  S
C521        C741   1.490       .  S
C521        C522   1.403       .  A
C522        H525   1.084       .  S
C526        C792   1.482       .  S
C526        C527   1.401       .  A
C526        C531   1.403       .  A
C527        C528   1.397       .  A
C527        H532   1.084       .  S
C528        C729   1.473       .  S
C528        C529   1.399       .  A
C529        C530   1.405       .  A
C529        H533   1.084       .  S
C530        C780   1.481       .  S
C530        C531   1.406       .  A
C531        H534   1.084       .  S
C535        C720   1.483       .  S
C535        C536   1.402       .  A
C536        H541   1.083       .  S
C537        C756   1.490       .  S
C537        C538   1.404       .  A
C538        C539   1.408       .  A
C538        H542   1.083       .  S
C539        C705   1.500       .  S
C539        C540   1.409       .  A
C540        H543   1.083       .  S
O544       Zr556   2.420       .  S
O544        C546   1.285       .  A
O545       Zr582   2.440       .  S
O545        C546   1.289       .  A
C546        C648   1.484       .  S
O547       Zr559   2.421       .  S
O547        C549   1.285       .  A
O548       Zr583   2.440   1_554  S
O548        C549   1.290       .  A
C549        C669   1.483       .  S
O550       Zr559   2.426       .  S
O550        C552   1.286       .  A
O551       Zr582   2.448   1_554  S
O551        C552   1.290       .  A
C552        C717   1.490       .  S
O553       Zr556   2.422       .  S
O553        C555   1.286       .  A
O554       Zr583   2.445       .  S
O554        C555   1.290       .  A
C555        C696   1.491       .  S
Zr556       O557   2.434       .  S
Zr556       O558   2.435       .  S
Zr556       O562   2.362   1_556  S
Zr556       O563   2.364   1_556  S
Zr556       O586   2.367       .  S
Zr556       O588   2.367       .  S
O557        H600   0.990       .  S
O558        H599   0.990       .  S
O558        H603   0.990       .  S
Zr559       O560   2.437       .  S
Zr559       O561   2.435       .  S
Zr559       O563   2.367       .  S
Zr559       O562   2.359       .  S
Zr559       O587   2.364       .  S
Zr559       O589   2.368       .  S
O560        H601   0.990       .  S
O560        H604   0.990       .  S
O561        H594   0.990       .  S
O562       Zr582   2.381   1_554  S
O563       Zr583   2.393   1_554  S
O563        H590   0.965       .  S
O564       Zr576   2.431       .  S
O564        C566   1.285       .  A
O565       Zr583   2.446       .  S
O565        C566   1.290       .  A
C566        C633   1.473       .  S
O567       Zr579   2.407       .  S
O567        C569   1.281       .  A
O568       Zr582   2.458   1_554  S
O568        C569   1.293       .  A
C569        C657   1.496       .  S
O570       Zr579   2.406       .  S
O570        C572   1.283       .  A
O571       Zr583   2.461   1_554  S
O571        C572   1.292       .  A
C572        C708   1.492       .  S
O573       Zr576   2.429       .  S
O573        C575   1.285       .  A
O574       Zr582   2.432       .  S
O574        C575   1.288       .  A
C575        C684   1.468       .  S
Zr576       O577   2.437       .  S
Zr576       O578   2.434       .  S
Zr576       O584   2.369       .  S
Zr576       O585   2.367       .  S
Zr576       O588   2.368       .  S
Zr576       O586   2.370       .  S
O577        H597   0.990       .  S
O577        H602   0.990       .  S
O578        H598   0.990       .  S
Zr579       O580   2.431       .  S
Zr579       O581   2.434       .  S
Zr579       O585   2.357   1_554  S
Zr579       O584   2.353   1_554  S
Zr579       O589   2.364       .  S
Zr579       O587   2.367       .  S
O580        H596   0.990       .  S
O581        H595   0.990       .  S
O581        H605   0.990       .  S
Zr582       O585   2.380       .  S
Zr582       O587   2.392   1_556  S
Zr582       O588   2.401       .  S
Zr583       O584   2.385       .  S
Zr583       O586   2.398       .  S
Zr583       O589   2.394   1_556  S
O584        H592   0.965       .  S
O587        H591   0.966       .  S
O588        H593   0.966       .  S
C606        C660   1.475       .  S
C606        C607   1.404       .  A
C606        C611   1.400       .  A
C607        C608   1.407       .  A
C607        H612   1.084       .  S
C608        C768   1.491       .  S
C608       C1481   1.403       .  A
C609       C1480   1.403   1_455  A
C609        C610   1.398       .  A
C609        H613   1.083       .  S
C610        C672   1.469       .  S
C610       C1483   1.400   1_455  A
C611       C1482   1.400       .  A
C611        H614   1.084       .  S
C615        C645   1.478       .  S
C615        C616   1.398       .  A
C616        H621   1.084       .  S
C617        C744   1.498       .  S
C617        C618   1.413       .  A
C618        C619   1.412       .  A
C618        H622   1.081       .  S
C619        C636   1.494       .  S
C619        C620   1.404       .  A
C620        H623   1.084       .  S
C624        C681   1.486       .  S
C624        C625   1.406       .  A
C624        C629   1.405       .  A
C625        C626   1.405       .  A
C625        H630   1.081       .  S
C626        C732   1.501       .  S
C626       C1499   1.407       .  A
C627       C1498   1.407   1_455  A
C627        C628   1.401       .  A
C627        H631   1.079       .  S
C628        C693   1.492       .  S
C628       C1501   1.403   1_455  A
C629       C1500   1.403       .  A
C629        H632   1.083       .  S
C633        C634   1.402       .  A
C633        C638   1.408       .  A
C634        C635   1.408       .  A
C634        H639   1.084       .  S
C635        C636   1.418       .  A
C635        C642   1.443       .  S
C636        C637   1.406       .  A
C637        C638   1.394       .  A
C637        H640   1.085       .  S
C638        C641   1.446       .  S
C641        N643   1.157       .  T
C642        N644   1.157       .  T
C645        C646   1.405       .  A
C645        C650   1.407       .  A
C646        C647   1.406       .  A
C646        H651   1.085       .  S
C647        C648   1.414       .  A
C647        C654   1.443       .  S
C648        C649   1.407       .  A
C649        C650   1.393       .  A
C649        H652   1.085       .  S
C650        C653   1.445       .  S
C653        N655   1.157       .  T
C654        N656   1.157       .  T
C657        C658   1.410       .  A
C657        C662   1.427       .  A
C658        C659   1.408       .  A
C658        H663   1.084       .  S
C659        C660   1.409       .  A
C659        C666   1.443       .  S
C660        C661   1.391       .  A
C661        C662   1.391       .  A
C661        H664   1.086       .  S
C662        C665   1.444       .  S
C665        N667   1.157       .  T
C666        N668   1.157       .  T
C669        C670   1.410       .  A
C669        C674   1.414       .  A
C670        C671   1.394       .  A
C670        H675   1.084       .  S
C671        C672   1.402       .  A
C671        C678   1.445       .  S
C672        C673   1.404       .  A
C673        C674   1.403       .  A
C673        H676   1.085       .  S
C674        C677   1.444       .  S
C677        N679   1.157       .  T
C678        N680   1.157       .  T
C681        C682   1.407       .  A
C681        C686   1.413       .  A
C682        C683   1.400       .  A
C682        H687   1.084       .  S
C683        C684   1.406       .  A
C683        C690   1.444       .  S
C684        C685   1.402       .  A
C685        C686   1.400       .  A
C685        H688   1.085       .  S
C686        C689   1.444       .  S
C689        N691   1.157       .  T
C690        N692   1.157       .  T
C693        C694   1.407       .  A
C693        C698   1.414       .  A
C694        C695   1.404       .  A
C694        H699   1.085       .  S
C695        C696   1.415       .  A
C695        C702   1.442       .  S
C696        C697   1.408       .  A
C697        C698   1.395       .  A
C697        H700   1.085       .  S
C698        C701   1.445       .  S
C701        N703   1.157       .  T
C702        N704   1.157       .  T
C705        C706   1.412       .  A
C705        C710   1.416       .  A
C706        C707   1.411       .  A
C706        H711   1.084       .  S
C707        C708   1.413       .  A
C707        C714   1.443       .  S
C708        C709   1.406       .  A
C709        C710   1.393       .  A
C709        H712   1.086       .  S
C710        C713   1.446       .  S
C713        N715   1.157       .  T
C714        N716   1.157       .  T
C717        C718   1.408       .  A
C717        C722   1.415       .  A
C718        C719   1.395       .  A
C718        H723   1.085       .  S
C719        C720   1.407       .  A
C719        C726   1.445       .  S
C720        C721   1.407       .  A
C721        C722   1.410       .  A
C721        H724   1.084       .  S
C722        C725   1.443       .  S
C725        N727   1.157       .  T
C726        N728   1.157       .  T
C729        C730   1.398       .  A
C729       C1606   1.404       .  A
C730        C731   1.403       .  A
C730        H735   1.085       .  S
C731        C732   1.424       .  A
C731        C738   1.443       .  S
C732       C1605   1.410       .  A
C733       C1604   1.410   1_455  A
C733        C734   1.394       .  A
C733        H736   1.083       .  S
C734       C1601   1.404   1_455  A
C734        C737   1.443       .  S
C737        N739   1.157       .  T
C738        N740   1.157       .  T
C741        C742   1.406       .  A
C742        C743   1.407       .  A
C742        H747   1.085       .  S
C743        C744   1.417       .  A
C743        C750   1.443       .  S
C745        C746   1.398       .  A
C745        H748   1.084       .  S
C746        C749   1.445       .  S
C749        N751   1.157       .  T
C750        N752   1.157       .  T
C753        C758   1.413       .  A
C754        C755   1.402       .  A
C754        H759   1.085       .  S
C755        C762   1.444       .  S
C756        C757   1.406       .  A
C757        C758   1.400       .  A
C757        H760   1.084       .  S
C758        C761   1.445       .  S
C761        N763   1.157       .  T
C762        N764   1.157       .  T
C765       C1638   1.400       .  A
C765        C770   1.409       .  A
C766       C1637   1.400   1_455  A
C766        C767   1.402       .  A
C766        H771   1.085       .  S
C767       C1640   1.419   1_455  A
C767        C774   1.444       .  S
C768       C1639   1.419       .  A
C768        C769   1.406       .  A
C769        C770   1.396       .  A
C769        H772   1.084       .  S
C770        C773   1.444       .  S
C773        N775   1.157       .  T
C774        N776   1.157       .  T
C777        C778   1.401       .  A
C777       C1654   1.412   1_455  A
C778        C779   1.404       .  A
C778        H783   1.084       .  S
C779       C1652   1.415       .  A
C779        C786   1.443       .  S
C780       C1651   1.415       .  A
C780        C781   1.401       .  A
C781        C782   1.394       .  A
C781        H784   1.085       .  S
C782       C1649   1.412       .  A
C782        C785   1.445       .  S
C785        N787   1.157       .  T
C786        N788   1.157       .  T
C789       C1662   1.405       .  A
C789        C794   1.413       .  A
C790       C1661   1.405       .  A
C790        C791   1.386   1_655  A
C790        H795   1.085   1_655  S
C791       C1664   1.409   1_455  A
C791        C798   1.443       .  S
C792       C1663   1.409       .  A
C792        C793   1.409       .  A
C793        C794   1.407       .  A
C793        H796   1.084       .  S
C794        C797   1.443       .  S
C797        N799   1.157       .  T
C798        N800   1.156       .  T
C801       C1674   1.401       .  A
C801        C806   1.411       .  A
C802       C1673   1.401       .  A
C802        C803   1.393       .  A
C802        H807   1.086       .  S
C803        C804   1.420       .  A
C803        C810   1.443       .  S
C804       C1677   1.414       .  A
C805       C1676   1.414       .  A
C805        C806   1.410       .  A
C805        H808   1.084       .  S
C806        C809   1.442       .  S
C809        N811   1.157       .  T
C810        N812   1.157       .  T
C813       C1686   1.406       .  A
C813        C818   1.420       .  A
C814       C1685   1.406   1_455  A
C814        C815   1.399       .  A
C814        H819   1.084       .  S
C815       C1688   1.409   1_455  A
C815        C822   1.445       .  S
C816       C1687   1.409       .  A
C816        C817   1.399       .  A
C817        C818   1.402       .  A
C817        H820   1.084       .  S
C818        C821   1.444       .  S
C821        N823   1.157       .  T
C822        N824   1.157       .  T
C825        C826   1.410       .  A
C826        C827   1.411       .  A
C826        H831   1.084       .  S
C827        C834   1.441       .  S
C828        C829   1.395       .  A
C829        C830   1.393       .  A
C829        H832   1.086       .  S
C830        C833   1.446       .  S
C833        N835   1.157       .  T
C834        N836   1.157       .  T
C837        C838   1.401       .  A
C837        C842   1.409       .  A
C839        C846   1.442       .  S
C840        C841   1.410       .  A
C841        C842   1.407       .  A
C841        H844   1.084       .  S
C842        C845   1.444       .  S
C845        N847   1.157       .  T
C846        N848   1.156       .  T
C849        C854   1.415       .  A
C850        C851   1.394       .  A
C850        H855   1.084       .  S
C851        C852   1.404       .  A
C851        C858   1.445       .  S
C853        C854   1.408       .  A
C853        H856   1.084       .  S
C854        C857   1.443       .  S
C857        N859   1.157       .  T
C858        N860   1.157       .  T
C861        C862   1.406       .  A
C862        C863   1.405       .  A
C862        H867   1.085       .  S
C863        C864   1.411       .  A
C863        C870   1.443       .  S
C865        C866   1.397       .  A
C865        H868   1.085       .  S
C866        C869   1.444       .  S
C869        N871   1.157       .  T
C870        N872   1.157       .  T
O873       Zr885   2.427       .  S
O873       C1311   1.286       .  A
O874       Zr911   2.437       .  S
O874        C875   1.288       .  A
C875       O1309   1.286   1_545  A
C875       C1300   1.478       .  S
O876       Zr888   2.426       .  S
O877       Zr912   2.442       .  S
O877        C878   1.289       .  A
C878       C1213   1.470       .  S
O879       Zr888   2.431       .  S
O879       C1317   1.286       .  A
O880       Zr911   2.437       .  S
O880        C881   1.288       .  A
C881       O1315   1.286   1_545  A
C881       C1273   1.477       .  S
O882       Zr885   2.417       .  S
O883       Zr912   2.455       .  S
O883        C884   1.292       .  A
C884       C1237   1.488       .  S
Zr885       O886   2.434       .  S
Zr885       O887   2.434       .  S
Zr885       O891   2.360       .  S
Zr885       O892   2.362       .  S
Zr885      O1353   2.366       .  S
O886        H929   0.990       .  S
O887        H928   0.990       .  S
O887        H932   0.990       .  S
Zr888       O889   2.437       .  S
Zr888       O890   2.434       .  S
Zr888       O892   2.370       .  S
Zr888       O891   2.364       .  S
Zr888      O1352   2.363       .  S
O889        H930   0.989       .  S
O889        H933   0.990       .  S
O890        H923   0.990       .  S
O891      Zr1347   2.380       .  S
O892        H919   0.965       .  S
O893       Zr905   2.426       .  S
O893       C1331   1.286   1_545  A
O894       Zr912   2.451       .  S
O894        C895   1.291       .  A
C895       O1329   1.286       .  A
C895       C1285   1.489       .  S
O896       Zr908   2.399       .  S
O897       Zr911   2.440       .  S
O897        C898   1.288       .  A
C898       C1225   1.482       .  S
O899       Zr908   2.403       .  S
O899       C1337   1.279   1_545  A
O900       Zr912   2.473       .  S
O900        C901   1.296       .  A
C901       O1335   1.279       .  A
C901       C1261   1.504       .  S
O902       Zr905   2.434       .  S
O903       Zr911   2.431       .  S
O903        C904   1.287       .  A
C904       C1252   1.472       .  S
Zr905       O906   2.437       .  S
Zr905       O907   2.434       .  S
Zr905       O913   2.369       .  S
Zr905       O914   2.360       .  S
Zr905      O1351   2.370   1_545  S
O906        H926   0.990       .  S
O906        H931   0.990       .  S
O907        H927   0.990       .  S
Zr908       O909   2.433       .  S
Zr908       O910   2.435       .  S
Zr908       O914   2.356       .  S
Zr908       O913   2.358       .  S
Zr908      O1354   2.364   1_545  S
O909        H925   0.990       .  S
O910        H924   0.990       .  S
O910        H934   0.990       .  S
Zr911      O1327   2.380   1_545  S
Zr911       O916   2.393       .  S
Zr911       O917   2.395       .  S
Zr912      O1349   2.390       .  S
Zr912       O915   2.401       .  S
Zr912       O918   2.396       .  S
O913      Zr1348   2.390   1_545  S
O913        H921   0.965       .  S
O915      Zr1341   2.370       .  S
O916      Zr1324   2.363   1_545  S
O916        H920   0.966       .  S
O917      Zr1321   2.366   1_545  S
O917        H922   0.966       .  S
O918      Zr1344   2.364       .  S
C935       C1249   1.493       .  S
C935        C936   1.414       .  A
C935        C940   1.404       .  A
C936        C937   1.414   1_655  A
C936        H941   1.083       .  S
C937       C1240   1.505       .  S
C937        C938   1.406       .  A
C938        C939   1.399   1_455  A
C938        H942   1.081       .  S
C939       C1201   1.477       .  S
C939        C940   1.394       .  A
C940        H943   1.083       .  S
C944       C1288   1.477   1_545  S
C944        C945   1.401       .  A
C944        C949   1.402       .  A
C945        C946   1.403       .  A
C945        H950   1.084       .  S
C946       C1297   1.482       .  S
C946        C947   1.404       .  A
C947        C948   1.406       .  A
C947        H951   1.084       .  S
C948       C1189   1.489       .  S
C948        C949   1.406       .  A
C949        H952   1.084       .  S
C953       C1264   1.487       .  S
C953        C954   1.405   1_565  A
C953        C958   1.403   1_565  A
C954        C955   1.411       .  A
C954        H959   1.083       .  S
C955       C1276   1.492       .  S
C955        C956   1.409       .  A
C956        C957   1.404       .  A
C956        H960   1.084       .  S
C957       C1177   1.490       .  S
C957        C958   1.403       .  A
C958        H961   1.084   1_545  S
C962       C1228   1.482       .  S
C962        C963   1.401       .  A
C962        C967   1.403       .  A
C963        C964   1.397       .  A
C963        H968   1.084       .  S
C964       C1165   1.473       .  S
C964        C965   1.399   1_655  A
C965        C966   1.405       .  A
C965        H969   1.084       .  S
C966       C1216   1.481       .  S
C966        C967   1.406   1_455  A
C967        H970   1.084   1_655  S
C971       C1156   1.483       .  S
C971        C972   1.402       .  A
C971       C1412   1.407       .  A
C972       C1409   1.404       .  A
C972        H977   1.083       .  S
C973       C1192   1.490       .  S
C973       C1408   1.404   1_545  A
C973        C974   1.404       .  A
C974        C975   1.408       .  A
C974        H978   1.083       .  S
C975       C1141   1.500       .  S
C975        C976   1.409       .  A
C976       C1407   1.407   1_545  A
C976        H979   1.083       .  S
O980       Zr992   2.420       .  S
O980        C982   1.285       .  A
O981      Zr1018   2.440       .  S
O981        C982   1.289       .  A
C982       C1084   1.484       .  S
O983       Zr995   2.421       .  S
O983        C985   1.285       .  A
O984      Zr1019   2.440   1_554  S
O984        C985   1.290       .  A
C985       C1105   1.483       .  S
O986       Zr995   2.426       .  S
O986        C988   1.286       .  A
O987      Zr1018   2.448   1_554  S
O987        C988   1.290       .  A
C988       C1153   1.490       .  S
O989       Zr992   2.422       .  S
O989        C991   1.286       .  A
O990      Zr1019   2.445       .  S
O990        C991   1.290       .  A
C991       C1132   1.491       .  S
Zr992       O993   2.434       .  S
Zr992       O994   2.435       .  S
Zr992       O998   2.362   1_556  S
Zr992       O999   2.364   1_556  S
Zr992      O1022   2.367       .  S
Zr992      O1024   2.367       .  S
O993       H1036   0.990       .  S
O994       H1035   0.990       .  S
O994       H1039   0.990       .  S
Zr995       O996   2.437       .  S
Zr995       O997   2.435       .  S
Zr995       O999   2.367       .  S
Zr995       O998   2.359       .  S
Zr995      O1023   2.364       .  S
Zr995      O1025   2.368       .  S
O996       H1037   0.990       .  S
O996       H1040   0.990       .  S
O997       H1030   0.990       .  S
O998      Zr1018   2.381   1_554  S
O999      Zr1019   2.393   1_554  S
O999       H1026   0.965       .  S
O1000     Zr1012   2.431       .  S
O1000      C1002   1.285       .  A
O1001     Zr1019   2.446       .  S
O1001      C1002   1.290       .  A
C1002      C1069   1.473       .  S
O1003     Zr1015   2.407       .  S
O1003      C1005   1.281       .  A
O1004     Zr1018   2.458   1_554  S
O1004      C1005   1.293       .  A
C1005      C1093   1.496       .  S
O1006     Zr1015   2.406       .  S
O1006      C1008   1.283       .  A
O1007     Zr1019   2.461   1_554  S
O1007      C1008   1.292       .  A
C1008      C1144   1.492       .  S
O1009     Zr1012   2.429       .  S
O1009      C1011   1.285       .  A
O1010     Zr1018   2.432       .  S
O1010      C1011   1.288       .  A
C1011      C1120   1.468       .  S
Zr1012     O1013   2.437       .  S
Zr1012     O1014   2.434       .  S
Zr1012     O1020   2.369       .  S
Zr1012     O1021   2.367       .  S
Zr1012     O1024   2.368       .  S
Zr1012     O1022   2.370       .  S
O1013      H1033   0.990       .  S
O1013      H1038   0.990       .  S
O1014      H1034   0.990       .  S
Zr1015     O1016   2.431       .  S
Zr1015     O1017   2.434       .  S
Zr1015     O1021   2.357   1_554  S
Zr1015     O1020   2.353   1_554  S
Zr1015     O1025   2.364       .  S
Zr1015     O1023   2.367       .  S
O1016      H1032   0.990       .  S
O1017      H1031   0.990       .  S
O1017      H1041   0.990       .  S
Zr1018     O1021   2.380       .  S
Zr1018     O1023   2.392   1_556  S
Zr1018     O1024   2.401       .  S
Zr1019     O1020   2.385       .  S
Zr1019     O1022   2.398       .  S
Zr1019     O1025   2.394   1_556  S
O1020      H1028   0.965       .  S
O1023      H1027   0.966       .  S
O1024      H1029   0.966       .  S
C1042      C1096   1.475       .  S
C1042      C1043   1.404       .  A
C1042      C1047   1.400       .  A
C1043      C1044   1.407       .  A
C1043      H1048   1.084       .  S
C1044      C1204   1.491       .  S
C1045      C1046   1.398       .  A
C1045      H1049   1.083       .  S
C1046      C1108   1.469       .  S
C1047      H1050   1.084       .  S
C1051      C1081   1.478       .  S
C1051      C1052   1.398       .  A
C1051      C1492   1.397       .  A
C1052      C1489   1.408       .  A
C1052      H1057   1.084       .  S
C1053      C1180   1.498       .  S
C1053      C1488   1.408   1_545  A
C1053      C1054   1.413       .  A
C1054      C1055   1.412       .  A
C1054      H1058   1.081       .  S
C1055      C1072   1.494       .  S
C1055      C1056   1.404       .  A
C1056      C1487   1.397   1_545  A
C1056      H1059   1.084       .  S
C1060      C1117   1.486       .  S
C1060      C1061   1.406       .  A
C1060      C1065   1.405       .  A
C1061      C1062   1.405       .  A
C1061      H1066   1.081       .  S
C1062      C1168   1.501       .  S
C1063      C1064   1.401       .  A
C1063      H1067   1.079       .  S
C1064      C1129   1.492       .  S
C1065      H1068   1.083       .  S
C1069      C1070   1.402       .  A
C1069      C1074   1.408       .  A
C1070      C1071   1.408       .  A
C1070      H1075   1.084       .  S
C1071      C1072   1.418       .  A
C1071      C1078   1.443       .  S
C1072      C1073   1.406       .  A
C1073      C1074   1.394       .  A
C1073      H1076   1.085       .  S
C1074      C1077   1.446       .  S
C1077      N1079   1.157       .  T
C1078      N1080   1.157       .  T
C1081      C1082   1.405       .  A
C1081      C1086   1.407       .  A
C1082      C1083   1.406       .  A
C1082      H1087   1.085       .  S
C1083      C1084   1.414       .  A
C1083      C1090   1.443       .  S
C1084      C1085   1.407       .  A
C1085      C1086   1.393       .  A
C1085      H1088   1.085       .  S
C1086      C1089   1.445       .  S
C1089      N1091   1.157       .  T
C1090      N1092   1.157       .  T
C1093      C1094   1.410       .  A
C1093      C1098   1.427       .  A
C1094      C1095   1.408       .  A
C1094      H1099   1.084       .  S
C1095      C1096   1.409       .  A
C1095      C1102   1.443       .  S
C1096      C1097   1.391       .  A
C1097      C1098   1.391       .  A
C1097      H1100   1.086       .  S
C1098      C1101   1.444       .  S
C1101      N1103   1.157       .  T
C1102      N1104   1.157       .  T
C1105      C1106   1.410       .  A
C1105      C1110   1.414       .  A
C1106      C1107   1.394       .  A
C1106      H1111   1.084       .  S
C1107      C1108   1.402       .  A
C1107      C1114   1.445       .  S
C1108      C1109   1.404       .  A
C1109      C1110   1.403       .  A
C1109      H1112   1.085       .  S
C1110      C1113   1.444       .  S
C1113      N1115   1.157       .  T
C1114      N1116   1.157       .  T
C1117      C1118   1.407       .  A
C1117      C1122   1.413       .  A
C1118      C1119   1.400       .  A
C1118      H1123   1.084       .  S
C1119      C1120   1.406       .  A
C1119      C1126   1.444       .  S
C1120      C1121   1.402       .  A
C1121      C1122   1.400       .  A
C1121      H1124   1.085       .  S
C1122      C1125   1.444       .  S
C1125      N1127   1.157       .  T
C1126      N1128   1.157       .  T
C1129      C1130   1.407       .  A
C1129      C1134   1.414       .  A
C1130      C1131   1.404       .  A
C1130      H1135   1.085       .  S
C1131      C1132   1.415       .  A
C1131      C1138   1.442       .  S
C1132      C1133   1.408       .  A
C1133      C1134   1.395       .  A
C1133      H1136   1.085       .  S
C1134      C1137   1.445       .  S
C1137      N1139   1.157       .  T
C1138      N1140   1.157       .  T
C1141      C1142   1.412       .  A
C1141      C1146   1.416       .  A
C1142      C1143   1.411       .  A
C1142      H1147   1.084       .  S
C1143      C1144   1.413       .  A
C1143      C1150   1.443       .  S
C1144      C1145   1.406       .  A
C1145      C1146   1.393       .  A
C1145      H1148   1.086       .  S
C1146      C1149   1.446       .  S
C1149      N1151   1.157       .  T
C1150      N1152   1.157       .  T
C1153      C1154   1.408       .  A
C1153      C1158   1.415       .  A
C1154      C1155   1.395       .  A
C1154      H1159   1.085       .  S
C1155      C1156   1.407       .  A
C1155      C1162   1.445       .  S
C1156      C1157   1.407       .  A
C1157      C1158   1.410       .  A
C1157      H1160   1.084       .  S
C1158      C1161   1.443       .  S
C1161      N1163   1.157       .  T
C1162      N1164   1.157       .  T
C1165      C1166   1.398       .  A
C1166      C1167   1.403       .  A
C1166      H1171   1.085       .  S
C1167      C1168   1.424       .  A
C1167      C1174   1.443       .  S
C1169      C1170   1.394       .  A
C1169      H1172   1.083       .  S
C1170      C1173   1.443       .  S
C1173      N1175   1.157       .  T
C1174      N1176   1.157       .  T
C1177      C1178   1.406       .  A
C1177      C1618   1.411   1_545  A
C1178      C1179   1.407       .  A
C1178      H1183   1.085       .  S
C1179      C1180   1.417       .  A
C1179      C1186   1.443       .  S
C1180      C1617   1.408   1_545  A
C1181      C1616   1.408       .  A
C1181      C1182   1.398       .  A
C1181      H1184   1.084       .  S
C1182      C1613   1.411       .  A
C1182      C1185   1.445       .  S
C1185      N1187   1.157       .  T
C1186      N1188   1.157       .  T
C1189      C1626   1.406   1_545  A
C1189      C1194   1.413       .  A
C1190      C1625   1.406       .  A
C1190      C1191   1.402       .  A
C1190      H1195   1.085       .  S
C1191      C1628   1.413       .  A
C1191      C1198   1.444       .  S
C1192      C1627   1.413   1_545  A
C1192      C1193   1.406       .  A
C1193      C1194   1.400       .  A
C1193      H1196   1.084       .  S
C1194      C1197   1.445       .  S
C1197      N1199   1.157       .  T
C1198      N1200   1.157       .  T
C1201      C1206   1.409       .  A
C1202      C1203   1.402       .  A
C1202      H1207   1.085       .  S
C1203      C1210   1.444       .  S
C1204      C1205   1.406       .  A
C1205      C1206   1.396       .  A
C1205      H1208   1.084       .  S
C1206      C1209   1.444       .  S
C1209      N1211   1.157       .  T
C1210      N1212   1.157       .  T
C1213      C1214   1.401       .  A
C1214      C1215   1.404       .  A
C1214      H1219   1.084       .  S
C1215      C1222   1.443       .  S
C1216      C1217   1.401   1_455  A
C1217      C1218   1.394       .  A
C1217      H1220   1.085       .  S
C1218      C1221   1.445       .  S
C1221      N1223   1.157       .  T
C1222      N1224   1.157       .  T
C1225      C1230   1.413       .  A
C1226      C1227   1.386       .  A
C1226      H1231   1.085       .  S
C1227      C1234   1.443       .  S
C1228      C1229   1.409       .  A
C1229      C1230   1.407       .  A
C1229      H1232   1.084       .  S
C1230      C1233   1.443       .  S
C1233      N1235   1.157       .  T
C1234      N1236   1.156       .  T
C1237      C1242   1.411       .  A
C1238      C1239   1.393       .  A
C1238      H1243   1.086   1_455  S
C1239      C1240   1.420       .  A
C1239      C1246   1.443   1_455  S
C1241      C1242   1.410       .  A
C1241      H1244   1.084       .  S
C1242      C1245   1.442       .  S
C1245      N1247   1.157       .  T
C1246      N1248   1.157       .  T
C1249      C1254   1.420       .  A
C1250      C1251   1.399       .  A
C1250      H1255   1.084       .  S
C1251      C1258   1.445       .  S
C1252      C1253   1.399       .  A
C1253      C1254   1.402       .  A
C1253      H1256   1.084       .  S
C1254      C1257   1.444       .  S
C1257      N1259   1.157       .  T
C1258      N1260   1.157       .  T
C1261      C1262   1.410       .  A
C1261      C1702   1.429       .  A
C1262      C1263   1.411       .  A
C1262      H1267   1.084       .  S
C1263      C1700   1.412       .  A
C1263      C1270   1.441       .  S
C1264      C1699   1.412       .  A
C1264      C1265   1.395   1_565  A
C1265      C1266   1.393       .  A
C1265      H1268   1.086       .  S
C1266      C1697   1.429   1_545  A
C1266      C1269   1.446       .  S
C1269      N1271   1.157       .  T
C1270      N1272   1.157       .  T
C1273      C1274   1.401   1_545  A
C1273      C1278   1.409       .  A
C1274      C1711   1.397       .  A
C1274      H1715   1.086       .  S
C1275      C1710   1.397       .  A
C1275      C1712   1.413       .  A
C1275      C1282   1.442       .  S
C1276      C1711   1.413   1_545  A
C1276      C1277   1.410       .  A
C1277      C1278   1.407       .  A
C1277      H1280   1.084       .  S
C1278      C1281   1.444       .  S
H1279      C1710   1.086       .  S
C1281      N1283   1.157       .  T
C1282      N1284   1.156       .  T
C1285      C1722   1.410       .  A
C1285      C1290   1.415       .  A
C1286      C1721   1.410   1_545  A
C1286      C1287   1.394       .  A
C1286      H1291   1.084       .  S
C1287      C1288   1.404   1_545  A
C1287      C1294   1.445       .  S
C1288      C1725   1.405       .  A
C1289      C1724   1.405       .  A
C1289      C1290   1.408       .  A
C1289      H1292   1.084       .  S
C1290      C1293   1.443       .  S
C1293      N1295   1.157       .  T
C1294      N1296   1.157       .  T
C1297      C1298   1.406       .  A
C1297      C1738   1.409   1_545  A
C1298      C1299   1.405       .  A
C1298      H1303   1.085       .  S
C1299      C1300   1.411       .  A
C1299      C1306   1.443       .  S
C1300      C1737   1.405   1_545  A
C1301      C1736   1.405       .  A
C1301      C1302   1.397       .  A
C1301      H1304   1.085       .  S
C1302      C1733   1.409       .  A
C1302      C1305   1.444       .  S
C1305      N1307   1.157       .  T
C1306      N1308   1.157       .  T
O1309     Zr1321   2.427       .  S
O1310     Zr1347   2.437       .  S
O1310      C1311   1.288       .  A
C1311      C1736   1.478       .  S
O1312     Zr1324   2.426       .  S
O1313     Zr1348   2.442       .  S
O1313      C1314   1.289       .  A
C1314      C1649   1.470       .  S
O1315     Zr1324   2.431       .  S
O1316     Zr1347   2.437       .  S
O1316      C1317   1.288       .  A
C1317      C1709   1.477       .  S
O1318     Zr1321   2.417       .  S
O1319     Zr1348   2.455       .  S
O1319      C1320   1.292       .  A
C1320      C1673   1.488       .  S
Zr1321     O1322   2.434       .  S
Zr1321     O1323   2.434       .  S
Zr1321     O1327   2.360       .  S
Zr1321     O1328   2.362       .  S
O1322      H1365   0.990       .  S
O1323      H1364   0.990       .  S
O1323      H1368   0.990       .  S
Zr1324     O1325   2.437       .  S
Zr1324     O1326   2.434       .  S
Zr1324     O1328   2.370       .  S
Zr1324     O1327   2.364       .  S
O1325      H1366   0.989       .  S
O1325      H1369   0.990       .  S
O1326      H1359   0.990       .  S
O1328      H1355   0.965       .  S
O1329     Zr1341   2.426       .  S
O1330     Zr1348   2.451       .  S
O1330      C1331   1.291       .  A
C1331      C1721   1.489       .  S
O1332     Zr1344   2.399       .  S
O1333     Zr1347   2.440       .  S
O1333      C1334   1.288       .  A
C1334      C1661   1.482       .  S
O1335     Zr1344   2.403       .  S
O1336     Zr1348   2.473       .  S
O1336      C1337   1.296       .  A
C1337      C1697   1.504       .  S
O1338     Zr1341   2.434       .  S
O1339     Zr1347   2.431       .  S
O1339      C1340   1.287       .  A
C1340      C1688   1.472       .  S
Zr1341     O1342   2.437       .  S
Zr1341     O1343   2.434       .  S
Zr1341     O1349   2.369       .  S
Zr1341     O1350   2.360       .  S
O1342      H1362   0.990       .  S
O1342      H1367   0.990       .  S
O1343      H1363   0.990       .  S
Zr1344     O1345   2.433       .  S
Zr1344     O1346   2.435       .  S
Zr1344     O1350   2.356       .  S
Zr1344     O1349   2.358       .  S
O1345      H1361   0.990       .  S
O1346      H1360   0.990       .  S
O1346      H1370   0.990       .  S
Zr1347     O1352   2.393       .  S
Zr1347     O1353   2.395       .  S
Zr1348     O1351   2.401       .  S
Zr1348     O1354   2.396       .  S
O1349      H1357   0.965       .  S
O1352      H1356   0.966       .  S
O1353      H1358   0.966       .  S
C1371      C1685   1.493       .  S
C1371      C1372   1.414       .  A
C1371      C1376   1.404       .  A
C1372      C1373   1.414   1_655  A
C1372      H1377   1.083       .  S
C1373      C1676   1.505       .  S
C1373      C1374   1.406       .  A
C1374      C1375   1.399   1_455  A
C1374      H1378   1.081       .  S
C1375      C1637   1.477       .  S
C1375      C1376   1.394       .  A
C1376      H1379   1.083       .  S
C1380      C1724   1.477       .  S
C1380      C1381   1.401       .  A
C1380      C1385   1.402       .  A
C1381      C1382   1.403       .  A
C1381      H1386   1.084       .  S
C1382      C1733   1.482       .  S
C1382      C1383   1.404       .  A
C1383      C1384   1.406       .  A
C1383      H1387   1.084       .  S
C1384      C1625   1.489       .  S
C1384      C1385   1.406       .  A
C1385      H1388   1.084       .  S
C1389      C1700   1.487       .  S
C1389      C1390   1.405       .  A
C1389      C1394   1.403       .  A
C1390      C1391   1.411       .  A
C1390      H1395   1.083       .  S
C1391      C1712   1.492       .  S
C1391      C1392   1.409       .  A
C1392      C1393   1.404       .  A
C1392      H1396   1.084       .  S
C1393      C1613   1.490       .  S
C1393      C1394   1.403       .  A
C1394      H1397   1.084       .  S
C1398      C1664   1.482       .  S
C1398      C1399   1.401       .  A
C1398      C1403   1.403       .  A
C1399      C1400   1.397       .  A
C1399      H1404   1.084       .  S
C1400      C1601   1.473       .  S
C1400      C1401   1.399   1_655  A
C1401      C1402   1.405       .  A
C1401      H1405   1.084       .  S
C1402      C1652   1.481       .  S
C1402      C1403   1.406   1_455  A
C1403      H1406   1.084   1_655  S
C1407      C1592   1.483       .  S
C1407      C1408   1.402       .  A
C1408      H1413   1.083       .  S
C1409      C1628   1.490       .  S
C1409      C1410   1.404       .  A
C1410      C1411   1.408       .  A
C1410      H1414   1.083       .  S
C1411      C1577   1.500       .  S
C1411      C1412   1.409       .  A
C1412      H1415   1.083       .  S
O1416     Zr1428   2.420       .  S
O1416      C1418   1.285       .  A
O1417     Zr1454   2.440       .  S
O1417      C1418   1.289       .  A
C1418      C1520   1.484       .  S
O1419     Zr1431   2.421       .  S
O1419      C1421   1.285       .  A
O1420     Zr1455   2.440   1_554  S
O1420      C1421   1.290       .  A
C1421      C1541   1.483       .  S
O1422     Zr1431   2.426       .  S
O1422      C1424   1.286       .  A
O1423     Zr1454   2.448   1_554  S
O1423      C1424   1.290       .  A
C1424      C1589   1.490       .  S
O1425     Zr1428   2.422       .  S
O1425      C1427   1.286       .  A
O1426     Zr1455   2.445       .  S
O1426      C1427   1.290       .  A
C1427      C1568   1.491       .  S
Zr1428     O1429   2.434       .  S
Zr1428     O1430   2.435       .  S
Zr1428     O1434   2.362   1_556  S
Zr1428     O1435   2.364   1_556  S
Zr1428     O1458   2.367       .  S
Zr1428     O1460   2.367       .  S
O1429      H1472   0.990       .  S
O1430      H1471   0.990       .  S
O1430      H1475   0.990       .  S
Zr1431     O1432   2.437       .  S
Zr1431     O1433   2.435       .  S
Zr1431     O1435   2.367       .  S
Zr1431     O1434   2.359       .  S
Zr1431     O1459   2.364       .  S
Zr1431     O1461   2.368       .  S
O1432      H1473   0.990       .  S
O1432      H1476   0.990       .  S
O1433      H1466   0.990       .  S
O1434     Zr1454   2.381   1_554  S
O1435     Zr1455   2.393   1_554  S
O1435      H1462   0.965       .  S
O1436     Zr1448   2.431       .  S
O1436      C1438   1.285       .  A
O1437     Zr1455   2.446       .  S
O1437      C1438   1.290       .  A
C1438      C1505   1.473       .  S
O1439     Zr1451   2.407       .  S
O1439      C1441   1.281       .  A
O1440     Zr1454   2.458   1_554  S
O1440      C1441   1.293       .  A
C1441      C1529   1.496       .  S
O1442     Zr1451   2.406       .  S
O1442      C1444   1.283       .  A
O1443     Zr1455   2.461   1_554  S
O1443      C1444   1.292       .  A
C1444      C1580   1.492       .  S
O1445     Zr1448   2.429       .  S
O1445      C1447   1.285       .  A
O1446     Zr1454   2.432       .  S
O1446      C1447   1.288       .  A
C1447      C1556   1.468       .  S
Zr1448     O1449   2.437       .  S
Zr1448     O1450   2.434       .  S
Zr1448     O1456   2.369       .  S
Zr1448     O1457   2.367       .  S
Zr1448     O1460   2.368       .  S
Zr1448     O1458   2.370       .  S
O1449      H1469   0.990       .  S
O1449      H1474   0.990       .  S
O1450      H1470   0.990       .  S
Zr1451     O1452   2.431       .  S
Zr1451     O1453   2.434       .  S
Zr1451     O1457   2.357   1_554  S
Zr1451     O1456   2.353   1_554  S
Zr1451     O1461   2.364       .  S
Zr1451     O1459   2.367       .  S
O1452      H1468   0.990       .  S
O1453      H1467   0.990       .  S
O1453      H1477   0.990       .  S
Zr1454     O1457   2.380       .  S
Zr1454     O1459   2.392   1_556  S
Zr1454     O1460   2.401       .  S
Zr1455     O1456   2.385       .  S
Zr1455     O1458   2.398       .  S
Zr1455     O1461   2.394   1_556  S
O1456      H1464   0.965       .  S
O1459      H1463   0.966       .  S
O1460      H1465   0.966       .  S
C1478      C1532   1.475       .  S
C1478      C1479   1.404       .  A
C1478      C1483   1.400       .  A
C1479      C1480   1.407       .  A
C1479      H1484   1.084       .  S
C1480      C1640   1.491       .  S
C1481      C1482   1.398       .  A
C1481      H1485   1.083       .  S
C1482      C1544   1.469       .  S
C1483      H1486   1.084       .  S
C1487      C1517   1.478       .  S
C1487      C1488   1.398       .  A
C1488      H1493   1.084       .  S
C1489      C1616   1.498       .  S
C1489      C1490   1.413       .  A
C1490      C1491   1.412       .  A
C1490      H1494   1.081       .  S
C1491      C1508   1.494       .  S
C1491      C1492   1.404       .  A
C1492      H1495   1.084       .  S
C1496      C1553   1.486       .  S
C1496      C1497   1.406       .  A
C1496      C1501   1.405       .  A
C1497      C1498   1.405       .  A
C1497      H1502   1.081       .  S
C1498      C1604   1.501       .  S
C1499      C1500   1.401       .  A
C1499      H1503   1.079       .  S
C1500      C1565   1.492       .  S
C1501      H1504   1.083       .  S
C1505      C1506   1.402       .  A
C1505      C1510   1.408       .  A
C1506      C1507   1.408       .  A
C1506      H1511   1.084       .  S
C1507      C1508   1.418       .  A
C1507      C1514   1.443       .  S
C1508      C1509   1.406       .  A
C1509      C1510   1.394       .  A
C1509      H1512   1.085       .  S
C1510      C1513   1.446       .  S
C1513      N1515   1.157       .  T
C1514      N1516   1.157       .  T
C1517      C1518   1.405       .  A
C1517      C1522   1.407       .  A
C1518      C1519   1.406       .  A
C1518      H1523   1.085       .  S
C1519      C1520   1.414       .  A
C1519      C1526   1.443       .  S
C1520      C1521   1.407       .  A
C1521      C1522   1.393       .  A
C1521      H1524   1.085       .  S
C1522      C1525   1.445       .  S
C1525      N1527   1.157       .  T
C1526      N1528   1.157       .  T
C1529      C1530   1.410       .  A
C1529      C1534   1.427       .  A
C1530      C1531   1.408       .  A
C1530      H1535   1.084       .  S
C1531      C1532   1.409       .  A
C1531      C1538   1.443       .  S
C1532      C1533   1.391       .  A
C1533      C1534   1.391       .  A
C1533      H1536   1.086       .  S
C1534      C1537   1.444       .  S
C1537      N1539   1.157       .  T
C1538      N1540   1.157       .  T
C1541      C1542   1.410       .  A
C1541      C1546   1.414       .  A
C1542      C1543   1.394       .  A
C1542      H1547   1.084       .  S
C1543      C1544   1.402       .  A
C1543      C1550   1.445       .  S
C1544      C1545   1.404       .  A
C1545      C1546   1.403       .  A
C1545      H1548   1.085       .  S
C1546      C1549   1.444       .  S
C1549      N1551   1.157       .  T
C1550      N1552   1.157       .  T
C1553      C1554   1.407       .  A
C1553      C1558   1.413       .  A
C1554      C1555   1.400       .  A
C1554      H1559   1.084       .  S
C1555      C1556   1.406       .  A
C1555      C1562   1.444       .  S
C1556      C1557   1.402       .  A
C1557      C1558   1.400       .  A
C1557      H1560   1.085       .  S
C1558      C1561   1.444       .  S
C1561      N1563   1.157       .  T
C1562      N1564   1.157       .  T
C1565      C1566   1.407       .  A
C1565      C1570   1.414       .  A
C1566      C1567   1.404       .  A
C1566      H1571   1.085       .  S
C1567      C1568   1.415       .  A
C1567      C1574   1.442       .  S
C1568      C1569   1.408       .  A
C1569      C1570   1.395       .  A
C1569      H1572   1.085       .  S
C1570      C1573   1.445       .  S
C1573      N1575   1.157       .  T
C1574      N1576   1.157       .  T
C1577      C1578   1.412       .  A
C1577      C1582   1.416       .  A
C1578      C1579   1.411       .  A
C1578      H1583   1.084       .  S
C1579      C1580   1.413       .  A
C1579      C1586   1.443       .  S
C1580      C1581   1.406       .  A
C1581      C1582   1.393       .  A
C1581      H1584   1.086       .  S
C1582      C1585   1.446       .  S
C1585      N1587   1.157       .  T
C1586      N1588   1.157       .  T
C1589      C1590   1.408       .  A
C1589      C1594   1.415       .  A
C1590      C1591   1.395       .  A
C1590      H1595   1.085       .  S
C1591      C1592   1.407       .  A
C1591      C1598   1.445       .  S
C1592      C1593   1.407       .  A
C1593      C1594   1.410       .  A
C1593      H1596   1.084       .  S
C1594      C1597   1.443       .  S
C1597      N1599   1.157       .  T
C1598      N1600   1.157       .  T
C1601      C1602   1.398       .  A
C1602      C1603   1.403       .  A
C1602      H1607   1.085       .  S
C1603      C1604   1.424       .  A
C1603      C1610   1.443       .  S
C1605      C1606   1.394       .  A
C1605      H1608   1.083       .  S
C1606      C1609   1.443       .  S
C1609      N1611   1.157       .  T
C1610      N1612   1.157       .  T
C1613      C1614   1.406       .  A
C1614      C1615   1.407       .  A
C1614      H1619   1.085       .  S
C1615      C1616   1.417       .  A
C1615      C1622   1.443       .  S
C1617      C1618   1.398       .  A
C1617      H1620   1.084       .  S
C1618      C1621   1.445       .  S
C1621      N1623   1.157       .  T
C1622      N1624   1.157       .  T
C1625      C1630   1.413       .  A
C1626      C1627   1.402       .  A
C1626      H1631   1.085       .  S
C1627      C1634   1.444       .  S
C1628      C1629   1.406       .  A
C1629      C1630   1.400       .  A
C1629      H1632   1.084       .  S
C1630      C1633   1.445       .  S
C1633      N1635   1.157       .  T
C1634      N1636   1.157       .  T
C1637      C1642   1.409       .  A
C1638      C1639   1.402       .  A
C1638      H1643   1.085       .  S
C1639      C1646   1.444       .  S
C1640      C1641   1.406       .  A
C1641      C1642   1.396       .  A
C1641      H1644   1.084       .  S
C1642      C1645   1.444       .  S
C1645      N1647   1.157       .  T
C1646      N1648   1.157       .  T
C1649      C1650   1.401       .  A
C1650      C1651   1.404       .  A
C1650      H1655   1.084       .  S
C1651      C1658   1.443       .  S
C1652      C1653   1.401   1_455  A
C1653      C1654   1.394       .  A
C1653      H1656   1.085       .  S
C1654      C1657   1.445       .  S
C1657      N1659   1.157       .  T
C1658      N1660   1.157       .  T
C1661      C1666   1.413       .  A
C1662      C1663   1.386       .  A
C1662      H1667   1.085       .  S
C1663      C1670   1.443       .  S
C1664      C1665   1.409       .  A
C1665      C1666   1.407       .  A
C1665      H1668   1.084       .  S
C1666      C1669   1.443       .  S
C1669      N1671   1.157       .  T
C1670      N1672   1.156       .  T
C1673      C1678   1.411       .  A
C1674      C1675   1.393       .  A
C1674      H1679   1.086   1_455  S
C1675      C1676   1.420       .  A
C1675      C1682   1.443   1_455  S
C1677      C1678   1.410       .  A
C1677      H1680   1.084       .  S
C1678      C1681   1.442       .  S
C1681      N1683   1.157       .  T
C1682      N1684   1.157       .  T
C1685      C1690   1.420       .  A
C1686      C1687   1.399       .  A
C1686      H1691   1.084       .  S
C1687      C1694   1.445       .  S
C1688      C1689   1.399       .  A
C1689      C1690   1.402       .  A
C1689      H1692   1.084       .  S
C1690      C1693   1.444       .  S
C1693      N1695   1.157       .  T
C1694      N1696   1.157       .  T
C1697      C1698   1.410       .  A
C1698      C1699   1.411       .  A
C1698      H1703   1.084       .  S
C1699      C1706   1.441       .  S
C1700      C1701   1.395       .  A
C1701      C1702   1.393       .  A
C1701      H1704   1.086       .  S
C1702      C1705   1.446       .  S
C1705      N1707   1.157       .  T
C1706      N1708   1.157       .  T
C1709      C1710   1.401       .  A
C1709      C1714   1.409       .  A
C1711      C1718   1.442       .  S
C1712      C1713   1.410       .  A
C1713      C1714   1.407       .  A
C1713      H1716   1.084       .  S
C1714      C1717   1.444       .  S
C1717      N1719   1.157       .  T
C1718      N1720   1.156       .  T
C1721      C1726   1.415       .  A
C1722      C1723   1.394       .  A
C1722      H1727   1.084       .  S
C1723      C1724   1.404       .  A
C1723      C1730   1.445       .  S
C1725      C1726   1.408       .  A
C1725      H1728   1.084       .  S
C1726      C1729   1.443       .  S
C1729      N1731   1.157       .  T
C1730      N1732   1.157       .  T
C1733      C1734   1.406       .  A
C1734      C1735   1.405       .  A
C1734      H1739   1.085       .  S
C1735      C1736   1.411       .  A
C1735      C1742   1.443       .  S
C1737      C1738   1.397       .  A
C1737      H1740   1.085       .  S
C1738      C1741   1.444       .  S
C1741      N1743   1.157       .  T
C1742      N1744   1.157       .  T
