geometry optimzed in LAMMPS
_audit_creation_date              2020-11-30 
_audit_creation_method            'lammps2cif' 
_symmetry_space_group_name_H-M    'P1' 
_symmetry_Int_Tables_number       1 
_symmetry_cell_setting            triclinic 
loop_ 
_symmetry_equiv_pos_as_xyz 
  x,y,z 
_cell_length_a                    51.06018979 
_cell_length_b                    51.141425357375766 
_cell_length_c                    44.02111195489848 
_cell_angle_alpha                 88.86732520121708 
_cell_angle_beta                  91.31507816498294 
_cell_angle_gamma                 122.22597094235772 
loop_ 
_atom_site_label 
_atom_site_type_symbol 
_atom_site_fract_x 
_atom_site_fract_y 
_atom_site_fract_z 
_atom_site_charge 
C1          C  0.69066032  0.15003871  0.28544411     0.86400
C2          C  0.68378485  0.14764393  0.31949190    -0.53800
C3          C  0.67375412  0.16611455  0.32898279     0.09300
C4          C  0.67201772  0.18605140  0.30341375     0.20300
C5          C  0.65960860  0.14282953  0.27049941    -0.54500
C6          C  0.65002318  0.16182237  0.28019306     0.09400
C7          C  0.71303473  0.18435036  0.27875361    -0.54100
C8          C  0.70381832  0.20320856  0.28822358     0.10000
H9          H  0.68512361  0.13140499  0.33457625     0.14500
H10         H  0.66437285  0.20155768  0.31079179     0.00300
H11         H  0.64522085  0.12346297  0.25574123     0.14800
H12         H  0.73485546  0.19322973  0.26720422     0.14600
C13         C  0.86512033  0.32695542  0.24395451     0.86400
C14         C  0.86011211  0.32524611  0.20932043    -0.53800
C15         C  0.83822232  0.33079203  0.19927013     0.09300
C16         C  0.82206605  0.33698377  0.22503840     0.20300
C17         C  0.87157124  0.35915731  0.25208024    -0.54500
C18         C  0.84913390  0.36485648  0.24215443     0.09400
C19         C  0.83268250  0.30387745  0.25591881    -0.54100
C20         C  0.81019147  0.30922383  0.24709627     0.10000
H21         H  0.87243770  0.32033982  0.19303202     0.14500
H22         H  0.80330992  0.34032630  0.21765652     0.00300
H23         H  0.89268243  0.37608638  0.26379050     0.14800
H24         H  0.82781603  0.28443087  0.27049934     0.14600
O25         O  0.76452885  0.09757378  0.21157820    -0.57900
C26         C  0.81422005  0.08966464  0.15381422     0.74700
O27         O  0.83706756  0.10368783  0.26481044    -0.59000
C28         C  0.75986144  0.09768245  0.23968450     0.74700
C29         C  0.77165647  0.01617330  0.22235800     0.77100
Cd30       Cd  0.80367551  0.08276352  0.21827816     1.37500
O31         O  0.80124426  0.10151339  0.16704295    -0.57900
O32         O  0.75853754  0.03091320  0.21747845    -0.56700
C33         C  0.85836605  0.12819707  0.25237009     0.77100
O34         O  0.80063227  0.03214802  0.22735952    -0.59100
O35         O  0.82471462  0.07680190  0.17060081    -0.57500
O36         O  0.77491787  0.09044621  0.25739947    -0.57500
O37         O  0.85597240  0.13041687  0.22391339    -0.56700
O38         O  0.90623331  0.24103168  0.30970883    -0.57900
C39         C  0.92558234  0.20023991  0.36955091     0.74700
O40         O  0.88208978  0.15499965  0.29873927    -0.59000
C41         C  0.91700196  0.25618282  0.28523912     0.74700
C42         C  0.99434412  0.23616917  0.29734323     0.77100
Cd43       Cd  0.92865784  0.20840605  0.30440131     1.37500
O44         O  0.91257023  0.21222177  0.35550138    -0.57900
O45         O  0.98208792  0.25074859  0.30541410    -0.56700
C46         C  0.88333263  0.15383272  0.27019192     0.77100
O47         O  0.97615026  0.20772605  0.29163463    -0.59100
O48         O  0.93876185  0.19039279  0.35349101    -0.57500
O49         O  0.93258378  0.24878473  0.26974434    -0.57500
O50         O  0.90616941  0.17689409  0.25760168    -0.56700
O51         O  0.35780360  0.12720031  0.31440792    -0.57900
C52         C  0.30165525  0.09157199  0.38156251     0.74700
O53         O  0.29723336  0.13689317  0.30756052    -0.59000
C54         C  0.36399509  0.11208471  0.29668048     0.74700
C55         C  0.26138824  0.02499969  0.30683422     0.77100
Cd56       Cd  0.30152805  0.09097459  0.31555071     1.37500
O57         O  0.32611276  0.10256433  0.36645388    -0.57900
O58         O  0.29060407  0.03906177  0.30646628    -0.56700
C59         C  0.28931340  0.13192253  0.27984055     0.77100
O60         O  0.24994962  0.04153616  0.30962534    -0.59100
O61         O  0.27679869  0.08164684  0.36640743    -0.57500
O62         O  0.34091744  0.08692243  0.28716180    -0.57500
O63         O  0.28471017  0.10703093  0.26917094    -0.56700
O64         O  0.34871011  0.24079199  0.20434153    -0.57900
C65         C  0.29002080  0.19103895  0.15630241     0.74700
O66         O  0.29602910  0.18125402  0.27033990    -0.59000
C67         C  0.35855729  0.25375796  0.22982482     0.74700
C68         C  0.25840899  0.23167891  0.22621972     0.77100
Cd69       Cd  0.29494988  0.20420481  0.22038744     1.37500
O70         O  0.31458943  0.19977878  0.17156381    -0.57900
O71         O  0.28746381  0.24707708  0.22381583    -0.56700
C72         C  0.28793831  0.15494492  0.26047359     0.77100
O73         O  0.24529416  0.20257768  0.22786771    -0.59100
O74         O  0.26663358  0.18591101  0.17094494    -0.57500
O75         O  0.33879643  0.24395423  0.25074875    -0.57500
O76         O  0.28067066  0.15034081  0.23259424    -0.56700
C77         C  0.54281090  0.17116892  0.25367086     0.86400
C78         C  0.55665460  0.20519621  0.26260916    -0.53800
C79         C  0.53814438  0.21629904  0.25590330     0.09300
C80         C  0.50726967  0.19259616  0.24042303     0.20300
C81         C  0.51056233  0.15285719  0.26877085    -0.54500
C82         C  0.49220585  0.16452477  0.26219069     0.09400
C83         C  0.53393501  0.16968310  0.21982330    -0.54100
C84         C  0.51621242  0.18140885  0.21293812     0.10000
H85         H  0.57950728  0.21938678  0.27288666     0.14500
H86         H  0.49227073  0.20161573  0.23429281     0.00300
H87         H  0.50221856  0.13190964  0.28205181     0.14800
H88         H  0.53954008  0.15919692  0.20209371     0.14600
C89         C  0.48407683  0.32773441  0.27329920     0.86400
C90         C  0.48365364  0.32731139  0.30821532    -0.53800
C91         C  0.51169684  0.33730902  0.32182157     0.09300
C92         C  0.53760627  0.34486986  0.29934830     0.20300
C93         C  0.51038546  0.36045073  0.26446797    -0.54500
C94         C  0.53837269  0.36957672  0.27818657     0.09400
C95         C  0.49644100  0.30687048  0.26663846    -0.54100
C96         C  0.52461106  0.31606319  0.27923259     0.10000
H97         H  0.46301820  0.31920848  0.32144589     0.14500
H98         H  0.56022545  0.35175563  0.31010390     0.00300
H99         H  0.50731064  0.37484821  0.24816885     0.14800
H100        H  0.48368378  0.28579172  0.25345596     0.14600
C101        C  0.68781903  0.53795604  0.23175625     0.86400
C102        C  0.68013076  0.53026890  0.19803877    -0.59800
C103        C  0.67314112  0.50153939  0.19033880     0.09300
C104        C  0.67350999  0.48228505  0.21751378     0.20300
C105        C  0.65823561  0.51149476  0.24749031    -0.54500
C106        C  0.65055510  0.48227094  0.23959864     0.09400
C107        C  0.71277799  0.53101693  0.23981211    -0.54100
C108        C  0.70555948  0.50227521  0.23255534     0.10000
H109        H  0.67936128  0.54574743  0.18153965     0.14500
H110        H  0.66835439  0.45897697  0.21173985     0.00300
H111        H  0.64340286  0.51507054  0.26175890     0.14800
H112        H  0.73457851  0.54762657  0.25092660     0.14600
O113        O  0.76372012  0.66690641  0.30684932    -0.57900
C114        C  0.81386931  0.72153590  0.36726018     0.74700
O115        O  0.83919892  0.73589031  0.25856885    -0.59000
C116        C  0.75799252  0.66284767  0.27865270     0.74700
C117        C  0.77398099  0.75678227  0.29858787     0.77100
Cd118      Cd  0.80419947  0.72217639  0.30288421     1.37500
O119        O  0.79981029  0.69700843  0.35182000    -0.57900
O120        O  0.76032527  0.72823265  0.30430652    -0.56700
C121        C  0.85813020  0.73073904  0.27220638     0.77100
O122        O  0.80283306  0.77070943  0.29374096    -0.59100
O123        O  0.82539879  0.74691448  0.35275981    -0.57500
O124        O  0.77349376  0.68642604  0.26183228    -0.57500
O125        O  0.85412422  0.72510157  0.30035669    -0.56700
O126        O  0.89609356  0.65746654  0.21672818    -0.57900
C127        C  0.91702189  0.71345796  0.15823634     0.74700
O128        O  0.88272854  0.72879707  0.22731400    -0.59000
C129        C  0.90230996  0.65142068  0.24295833     0.74700
C130        C  0.98892972  0.74979185  0.23232045     0.77100
Cd131      Cd  0.92211924  0.71390457  0.22403223     1.37500
O132        O  0.89970595  0.68972623  0.17423081    -0.57900
O133        O  0.97298808  0.72065025  0.23367311    -0.56700
C134        C  0.88181615  0.72854559  0.25596393     0.77100
O135        O  0.97408038  0.76310921  0.22878851    -0.59100
O136        O  0.93565426  0.73798517  0.17250723    -0.57500
O137        O  0.91713647  0.67424431  0.26051998    -0.57500
O138        O  0.90080686  0.72378636  0.26988595    -0.56700
C139        C  0.83929726  0.46932221  0.27834096     0.86400
C140        C  0.80653435  0.46163398  0.26890614    -0.53800
C141        C  0.79994396  0.48275070  0.27796543     0.09300
C142        C  0.82616265  0.50949749  0.29626069     0.20300
C143        C  0.86145901  0.50246530  0.26632819    -0.54500
C144        C  0.85435118  0.52342872  0.27535719     0.09400
C145        C  0.83949244  0.47239583  0.31302661    -0.54100
C146        C  0.83372764  0.49410124  0.32230548     0.10000
H147        H  0.79010536  0.44189819  0.25530374     0.14500
H148        H  0.82041339  0.52640689  0.30390502     0.00300
H149        H  0.88122499  0.50859338  0.25241727     0.14800
H150        H  0.84402724  0.45893716  0.32917721     0.14600
C151        C  0.69614609  0.15448578  0.49959561     0.86400
C152        C  0.71824273  0.18839029  0.00372627    -0.53800
C153        C  0.70925581  0.20758061  0.49430863     0.09300
C154        C  0.67550854  0.18982514  0.48264265     0.20300
C155        C  0.66630409  0.14799516  0.01759637    -0.54500
C156        C  0.65682886  0.16674796  0.50828813     0.09400
C157        C  0.68488668  0.15049551  0.46642815    -0.54100
C158        C  0.67446331  0.16915112  0.45699625     0.10000
H159        H  0.74151606  0.19750612  0.01273773     0.14500
H160        H  0.66662941  0.20477152  0.47642767     0.00300
H161        H  0.65474726  0.13073877  0.03524752     0.14800
H162        H  0.68491395  0.13380295  0.45165408     0.14600
C163        C  0.87053455  0.32225898  0.02883149     0.86400
C164        C  0.83776987  0.30322581  0.01524637    -0.53800
C165        C  0.81841219  0.31326354  0.02153026     0.09300
C166        C  0.83363614  0.34128641  0.04282413     0.20300
C167        C  0.88266569  0.35597485  0.01944651    -0.54500
C168        C  0.86325524  0.36574441  0.02648814     0.09400
C169        C  0.86451586  0.32138157  0.06314807    -0.54100
C170        C  0.84509475  0.33087867  0.07029587     0.10000
H171        H  0.83029287  0.28257033  0.00205925     0.14500
H172        H  0.81876354  0.35008475  0.04872143     0.00300
H173        H  0.90579894  0.37043731  0.50958426     0.14800
H174        H  0.87396911  0.31392256  0.08109431     0.14600
O175        O  0.80060092  0.09796804  0.10403857    -0.57900
C176        C  0.76526853  0.09802641  0.03715653     0.74700
O177        O  0.86236783  0.12632314  0.04997515    -0.59000
C178        C  0.81487852  0.08888199  0.12050405     0.74700
C179        C  0.77990390  0.01459554  0.04421963     0.77100
Cd180      Cd  0.80853632  0.08038214  0.05527085     1.37500
O181        O  0.75888533  0.07850594  0.05831142    -0.57900
O182        O  0.76858222  0.02969509  0.03374521    -0.56700
C183        C  0.86384716  0.12442993  0.02151533     0.77100
O184        O  0.80578690  0.03006250  0.05783426    -0.59100
O185        O  0.79554607  0.11456282  0.53044579    -0.57500
O186        O  0.82796067  0.07739347  0.10686167    -0.57500
O187        O  0.84123071  0.10085097  0.00906694    -0.56700
O188        O  0.91576097  0.21184468  0.41854410    -0.57900
C189        C  0.92031772  0.24931960  0.98873874     0.74700
O190        O  0.91232514  0.17266203  0.01592072    -0.59000
C191        C  0.92652131  0.19929246  0.40288311     0.74700
C192        C  0.00029530  0.23377386  0.47098082     0.77100
Cd193      Cd  0.93346233  0.20356845  0.46810011     1.37500
O194        O  0.90960813  0.23464905  0.46396675    -0.57900
O195        O  0.98639378  0.24796408  0.47293153    -0.56700
C196        C  0.88902460  0.14838500  0.50250705     0.77100
O197        O  0.98341713  0.20510380  0.97140801    -0.59100
O198        O  0.93712519  0.24241327  0.00400030    -0.57500
O199        O  0.93915858  0.18711598  0.41734855    -0.57500
O200        O  0.88686736  0.15017309  0.47399085    -0.56700
O201        O  0.31428545  0.19776539  0.10879413    -0.57900
C202        C  0.35429362  0.24652902  0.04154342     0.74700
O203        O  0.28232313  0.14318234  0.05390579    -0.59000
C204        C  0.28974219  0.18956708  0.12300840     0.74700
C205        C  0.25903019  0.22672157  0.04858471     0.77100
Cd206      Cd  0.29333810  0.19704016  0.05803794     1.37500
O207        O  0.34888584  0.23403399  0.06767782    -0.57900
O208        O  0.28724583  0.24048706  0.05613594    -0.56700
C209        C  0.28739123  0.14477851  0.02575471     0.77100
O210        O  0.24539880  0.19791014  0.04366998    -0.59100
O211        O  0.33239666  0.23412210  0.52292975    -0.57500
O212        O  0.26581462  0.18227288  0.10709937    -0.57500
O213        O  0.29169937  0.16869084  0.01211067    -0.56700
O214        O  0.36150371  0.10209036  0.47540892    -0.57900
C215        C  0.30230261  0.08912590  0.41487096     0.74700
O216        O  0.25600250  0.02852654  0.99139281    -0.59000
C217        C  0.36579828  0.09832524  0.00316205     0.74700
C218        C  0.29125352  0.12089600  0.51082146     0.77100
Cd219      Cd  0.30469448  0.07958568  0.47957539     1.37500
O220        O  0.32760712  0.09966998  0.42940146    -0.57900
O221        O  0.29715486  0.12349133  0.48282844    -0.56700
C222        C  0.26669295  0.01244852  0.48281819     0.77100
O223        O  0.28752069  0.09790277  0.02348000    -0.59100
O224        O  0.27779434  0.07521070  0.43031307    -0.57500
O225        O  0.34221533  0.08607113  0.01984825    -0.57500
O226        O  0.29430105  0.02744768  0.47389948    -0.56700
C227        C  0.54830227  0.16965893  0.04590456     0.86400
C228        C  0.51506592  0.14298619  0.03666786    -0.53800
C229        C  0.49238503  0.14882281  0.04272111     0.09300
C230        C  0.50477778  0.18008454  0.05824611     0.20300
C231        C  0.55162375  0.19826294  0.02973514    -0.54500
C232        C  0.52923979  0.20384424  0.03647834     0.09400
C233        C  0.54525257  0.17370814  0.07989067    -0.54100
C234        C  0.52280432  0.17946853  0.08625805     0.10000
H235        H  0.51013957  0.12061593  0.52577478     0.14500
H236        H  0.48683197  0.18524152  0.06355540     0.00300
H237        H  0.57047888  0.21219870  0.51380586     0.14800
H238        H  0.55978892  0.17232800  0.09745083     0.14600
C239        C  0.47873013  0.31898581  0.49940930     0.86400
C240        C  0.48661861  0.29569227  0.00686161    -0.53800
C241        C  0.51384777  0.30092281  0.49557264     0.09300
C242        C  0.53108164  0.33124137  0.47691475     0.20300
C243        C  0.50681627  0.35077861  0.00996959    -0.54500
C244        C  0.53465792  0.35665166  0.49842542     0.09400
C245        C  0.48025116  0.32179604  0.46433945    -0.54100
C246        C  0.50762515  0.32824560  0.45252889     0.10000
H247        H  0.47170429  0.27476004  0.01988798     0.14500
H248        H  0.55289294  0.33610156  0.46703243     0.00300
H249        H  0.50455360  0.36470282  0.02653790     0.14800
H250        H  0.46162617  0.31848973  0.44943341     0.14600
C251        C  0.69263128  0.52432612  0.01535105     0.86400
C252        C  0.71892449  0.51857781  0.01305525    -0.53800
C253        C  0.71298598  0.49140247  0.02541343     0.09300
C254        C  0.68061856  0.47183312  0.03960473     0.20300
C255        C  0.66407832  0.49580027  0.00167108    -0.54500
C256        C  0.65729897  0.46830161  0.01456696     0.09400
C257        C  0.68644283  0.52111932  0.04988233    -0.54100
C258        C  0.67993583  0.49366961  0.06251700     0.10000
H259        H  0.74124696  0.53536548  0.00335754     0.14500
H260        H  0.67526260  0.44969609  0.04987453     0.00300
H261        H  0.64853299  0.49732253  0.48519388     0.14800
H262        H  0.68807049  0.53895927  0.06407150     0.14600
O263        O  0.77568924  0.65952757  0.45338561    -0.57900
C264        C  0.81442596  0.72013292  0.40052652     0.74700
O265        O  0.80875538  0.76484958  0.97162920    -0.59000
C266        C  0.75746509  0.65116934  0.97553213     0.74700
C267        C  0.85642847  0.72175956  0.50437663     0.77100
Cd268      Cd  0.80633872  0.71537164  0.46534399     1.37500
O269        O  0.80051853  0.69444010  0.41440336    -0.57900
O270        O  0.86016884  0.72780652  0.47627082    -0.56700
C271        C  0.77964903  0.75270185  0.47274596     0.77100
O272        O  0.83005389  0.71349608  0.01539294    -0.59100
O273        O  0.82680998  0.74416870  0.41670404    -0.57500
O274        O  0.76262086  0.67279232  0.99302794    -0.57500
O275        O  0.76427427  0.72357810  0.47424029    -0.56700
O276        O  0.90716219  0.65322438  0.06819073    -0.57900
C277        C  0.91667479  0.71205285  0.12483446     0.74700
O278        O  0.97214953  0.75778032  0.05242641    -0.59000
C279        C  0.90501981  0.64615423  0.04049449     0.74700
C280        C  0.87908068  0.71898028  0.02467569     0.77100
Cd281      Cd  0.92119991  0.70745867  0.05970901     1.37500
O282        O  0.90018163  0.68680161  0.11089569    -0.57900
O283        O  0.90558709  0.72724866  0.01507925    -0.56700
C284        C  0.98773936  0.74510443  0.05293000     0.77100
O285        O  0.87263941  0.70717852  0.05105847    -0.59100
O286        O  0.93390431  0.73565270  0.10864088    -0.57500
O287        O  0.90971472  0.66748267  0.52162919    -0.57500
O288        O  0.97257274  0.71595520  0.05454728    -0.56700
C289        C  0.85633373  0.47217901  0.99092085     0.86400
C290        C  0.87767218  0.50566585  0.00266002    -0.53800
C291        C  0.86778935  0.52501101  0.49685553     0.09300
C292        C  0.83744325  0.50928755  0.47846570     0.20300
C293        C  0.82402314  0.46141669  0.00296929    -0.54500
C294        C  0.81488856  0.48117196  0.49777451     0.09400
C295        C  0.85381727  0.47674402  0.45801861    -0.54100
C296        C  0.84348586  0.49581838  0.45071403     0.10000
H297        H  0.89900005  0.51363528  0.01538207     0.14500
H298        H  0.82899229  0.52485940  0.47290126     0.00300
H299        H  0.81060488  0.44080689  0.01687731     0.14800
H300        H  0.85875059  0.46605750  0.43998271     0.14600
O301        O  0.12189994  0.31151488  0.41013243    -0.57900
C302        C  0.11725563  0.35146595  0.97478175     0.74700
O303        O  0.04966344  0.23882815  0.96784076    -0.59000
C304        C  0.10446919  0.28698074  0.39543074     0.74700
C305        C  0.14220099  0.27728968  0.49819336     0.77100
Cd306      Cd  0.10094430  0.28924659  0.46079212     1.37500
O307        O  0.12718986  0.34635116  0.45117483    -0.57900
O308        O  0.12182952  0.28069508  0.50977280    -0.56700
C309        C  0.03426824  0.25120246  0.46895260     0.77100
O310        O  0.14368226  0.27955769  0.96893555    -0.59100
O311        O  0.10048231  0.32826267  0.99155172    -0.57500
O312        O  0.08668386  0.26297099  0.41091096    -0.57500
O313        O  0.04959216  0.28036274  0.46922188    -0.56700
O314        O  0.25793895  0.33745859  0.05977961    -0.57900
C315        C  0.20828370  0.27939834  0.11637617     0.74700
O316        O  0.18639307  0.27292583  0.00452355    -0.59000
C317        C  0.26589585  0.34267120  0.03226245     0.74700
C318        C  0.24374441  0.24422598  0.04737589     0.77100
Cd319      Cd  0.21787269  0.28217482  0.05196545     1.37500
O320        O  0.22040550  0.30447953  0.10141119    -0.57900
O321        O  0.25947083  0.27287383  0.05254158    -0.56700
C322        C  0.16586280  0.27602230  0.01627792     0.77100
O323        O  0.21493914  0.23209808  0.04273287    -0.59100
O324        O  0.19884585  0.25493355  0.10142504    -0.57500
O325        O  0.25288956  0.31907300  0.51611654    -0.57500
O326        O  0.16753241  0.27908835  0.04480794    -0.56700
C327        C  0.16713105  0.52970710  0.00979755     0.86400
C328        C  0.20036187  0.53914222  0.00181030    -0.53800
C329        C  0.20824108  0.51884292  0.01157729     0.09300
C330        C  0.18247208  0.49048457  0.02816648     0.20300
C331        C  0.14683948  0.49682958  0.99570836    -0.54500
C332        C  0.15529203  0.47657747  0.00534620     0.09400
C333        C  0.16457734  0.52324440  0.04419592    -0.54100
C334        C  0.17230014  0.50273966  0.05378094     0.10000
H335        H  0.21560989  0.56002363  0.48791457     0.14500
H336        H  0.18939510  0.47420680  0.03605747     0.00300
H337        H  0.12762727  0.48918874  0.48120604     0.14800
H338        H  0.15696401  0.53398681  0.05982785     0.14600
C339        C  0.32624352  0.46889991  0.48966116     0.86400
C340        C  0.33336525  0.47385463  0.45572298    -0.53800
C341        C  0.33993026  0.50161039  0.44448973     0.09300
C342        C  0.34015308  0.52296229  0.46846209     0.20300
C343        C  0.35586074  0.49708259  0.00360098    -0.54500
C344        C  0.36367063  0.52514177  0.49265610     0.09400
C345        C  0.30158669  0.47700899  0.99392394    -0.54100
C346        C  0.30843656  0.50431002  0.48385677     0.10000
H347        H  0.33362566  0.45682741  0.44164546     0.14500
H348        H  0.34536937  0.54513527  0.45815301     0.00300
H349        H  0.37036035  0.49442982  0.02006410     0.14800
H350        H  0.27992762  0.46119550  0.00528590     0.14600
O351        O  0.09475841  0.74807997  0.06638562    -0.57900
C352        C  0.09377576  0.80212347  0.12726207     0.74700
O353        O  0.14135114  0.83733008  0.05594079    -0.59000
C354        C  0.09527160  0.74491904  0.03795329     0.74700
C355        C  0.02173783  0.76255505  0.05371944     0.77100
Cd356      Cd  0.08781134  0.79254144  0.06232185     1.37500
O357        O  0.10704477  0.79082460  0.11364506    -0.57900
O358        O  0.03549326  0.74831754  0.05786764    -0.56700
C359        C  0.13678989  0.84627899  0.03052080     0.77100
O360        O  0.03863630  0.79182991  0.05197480    -0.59100
O361        O  0.07914094  0.81088463  0.11079588    -0.57500
O362        O  0.08889341  0.76150264  0.52118081    -0.57500
O363        O  0.10906970  0.83219495  0.02074593    -0.56700
O364        O  0.23844778  0.88103009  0.46576563    -0.57900
C365        C  0.20317467  0.91007050  0.41077697     0.74700
O366        O  0.18974663  0.88673281  0.02373895    -0.59000
C367        C  0.25828702  0.89156002  0.98807621     0.74700
C368        C  0.24877303  0.97847404  0.48238905     0.77100
Cd369      Cd  0.21548739  0.91209826  0.47530700     1.37500
O370        O  0.21211380  0.89360682  0.42328629    -0.57900
O371        O  0.26091115  0.96428810  0.47278402    -0.56700
C372        C  0.16262120  0.87027973  0.51285458     0.77100
O373        O  0.22120549  0.96228726  0.99016048    -0.59100
O374        O  0.19719694  0.92549882  0.42824389    -0.57500
O375        O  0.25921790  0.91273879  0.00344662    -0.57500
O376        O  0.15926013  0.87574344  0.48540241    -0.56700
C377        C  0.37372945  0.82992266  0.02956074     0.86400
C378        C  0.34605597  0.79706582  0.02305737    -0.53800
C379        C  0.31834909  0.79108894  0.03340458     0.09300
C380        C  0.32081287  0.81872520  0.04942232     0.20300
C381        C  0.36326680  0.85093695  0.01500980    -0.54500
C382        C  0.33548986  0.84485045  0.02564963     0.09400
C383        C  0.37347731  0.83476284  0.06373218    -0.54100
C384        C  0.34580065  0.82795915  0.07424228     0.10000
H385        H  0.34770051  0.78123313  0.50918846     0.14500
H386        H  0.29848400  0.81438923  0.05784132     0.00300
H387        H  0.37563313  0.86894660  0.49675332     0.14800
H388        H  0.39336247  0.84192516  0.07871630     0.14600
C389        C  0.14195720  0.67502978  0.48861077     0.86400
C390        C  0.14529622  0.67538540  0.45372728    -0.53800
C391        C  0.16846807  0.67153317  0.44436824     0.09300
C392        C  0.18593574  0.66718895  0.47103929     0.20300
C393        C  0.13769380  0.64390639  0.99795995    -0.54500
C394        C  0.16038242  0.63982030  0.48949220     0.09400
C395        C  0.17517413  0.69979458  0.99912358    -0.54100
C396        C  0.19740058  0.69563139  0.49092063     0.10000
H397        H  0.13063012  0.67761687  0.43725774     0.14500
H398        H  0.20490661  0.66417092  0.46475512     0.00300
H399        H  0.11759587  0.62611627  0.01009652     0.14800
H400        H  0.18001770  0.71925622  0.01309701     0.14600
C401        C  0.47961262  0.82839877  0.48522434     0.86400
C402        C  0.46493096  0.79286305  0.98754435    -0.53800
C403        C  0.48265810  0.78311941  0.47701963     0.09300
C404        C  0.51374385  0.80912934  0.46364396     0.20300
C405        C  0.51178365  0.84201822  0.00161859    -0.54500
C406        C  0.52993108  0.83264280  0.48957195     0.09400
C407        C  0.48597683  0.83475374  0.45122781    -0.54100
C408        C  0.50466899  0.82569906  0.44005167     0.10000
H409        H  0.44295195  0.77697548  0.99831990     0.14500
H410        H  0.52796920  0.80104425  0.45373111     0.00300
H411        H  0.51948033  0.85873649  0.01977773     0.14800
H412        H  0.47524305  0.84369694  0.43643717     0.14600
O413        O  0.66721796  0.87397904  0.04603799    -0.57900
C414        C  0.71878485  0.91090574  0.11543326     0.74700
O415        O  0.73863758  0.87534343  0.04532125    -0.59000
C416        C  0.65946506  0.88943248  0.02951900     0.74700
C417        C  0.76248762  0.98063931  0.04287013     0.77100
Cd418      Cd  0.72278432  0.91400927  0.04977511     1.37500
O419        O  0.69578308  0.90438372  0.09850820    -0.57900
O420        O  0.73580998  0.96546157  0.03078869    -0.56700
C421        C  0.73722867  0.87442643  0.01663104     0.77100
O422        O  0.77223733  0.96501476  0.05568027    -0.59100
O423        O  0.74339954  0.91767180  0.10224708    -0.57500
O424        O  0.68062451  0.91679458  0.52287735    -0.57500
O425        O  0.73240789  0.89368547  0.00348728    -0.56700
O426        O  0.67405314  0.75145987  0.45920604    -0.57900
C427        C  0.72417921  0.80521503  0.40181749     0.74700
O428        O  0.74451902  0.83190540  0.01154114    -0.59000
C429        C  0.66689242  0.74927174  0.98739343     0.74700
C430        C  0.76365415  0.76950865  0.47315760     0.77100
Cd431      Cd  0.72699846  0.79706677  0.46634883     1.37500
O432        O  0.70001344  0.79157103  0.41769763    -0.57900
O433        O  0.73481396  0.75491632  0.47700959    -0.56700
C434        C  0.73731544  0.85081797  0.49896693     0.77100
O435        O  0.77724092  0.79759656  0.96969622    -0.59100
O436        O  0.74986697  0.81673210  0.41588711    -0.57500
O437        O  0.68753746  0.76966957  0.00472142    -0.57500
O438        O  0.72909674  0.84618766  0.47132465    -0.56700
C439        C  0.53830207  0.67687909  0.02486301     0.86400
C440        C  0.53151680  0.66837309  0.05854417    -0.53800
C441        C  0.50199439  0.65842275  0.06661048     0.09300
C442        C  0.48156619  0.65744097  0.04012729     0.20300
C443        C  0.51340675  0.64688559  0.00828777    -0.54500
C444        C  0.48360216  0.63661867  0.01680606     0.09400
C445        C  0.52823761  0.69955043  0.01751823    -0.54100
C446        C  0.49900558  0.68968859  0.02554089     0.10000
H447        H  0.54934148  0.67209275  0.07497177     0.14500
H448        H  0.45771377  0.64979246  0.04705700     0.00300
H449        H  0.51817991  0.63507728  0.49091063     0.14800
H450        H  0.54188359  0.72135808  0.50421576     0.14600
O451        O  0.66170370  0.76338364  0.31105563    -0.57900
C452        C  0.72228881  0.80561376  0.36856769     0.74700
O453        O  0.76784355  0.80045970  0.29292839    -0.59000
C454        C  0.65577411  0.74929427  0.28610476     0.74700
C455        C  0.72470155  0.85011501  0.26885822     0.77100
Cd456      Cd  0.71782765  0.79783668  0.30381163     1.37500
O457        O  0.69643972  0.79148891  0.35471468    -0.57900
O458        O  0.72664494  0.82903813  0.25669801    -0.56700
C459        C  0.75629912  0.77200230  0.29871555     0.77100
O460        O  0.72231374  0.84871381  0.29743720    -0.59100
O461        O  0.74628826  0.81833922  0.35237574    -0.57500
O462        O  0.67878314  0.75780692  0.26928095    -0.57500
O463        O  0.72801488  0.75651923  0.30551345    -0.56700
O464        O  0.65650091  0.88501452  0.20711467    -0.57900
C465        C  0.71711523  0.91150903  0.14862833     0.74700
O466        O  0.76456220  0.96555924  0.22484926    -0.59000
C467        C  0.65074429  0.89836121  0.22740005     0.74700
C468        C  0.72318977  0.87370885  0.25051054     0.77100
Cd469      Cd  0.71347476  0.91598636  0.21357985     1.37500
O470        O  0.69184073  0.90262739  0.16158733    -0.57900
O471        O  0.72226782  0.87296957  0.22183042    -0.56700
C472        C  0.75331670  0.98227860  0.22093359     0.77100
O473        O  0.72097439  0.89472504  0.26243364    -0.59100
O474        O  0.74086803  0.92172191  0.16563487    -0.57500
O475        O  0.67403811  0.91933657  0.24190528    -0.57500
O476        O  0.72478685  0.96838937  0.21459123    -0.56700
C477        C  0.52966579  0.67978198  0.24165334     0.86400
C478        C  0.52193134  0.70434323  0.24707914    -0.53800
C479        C  0.49484513  0.69838948  0.23433626     0.09300
C480        C  0.47707536  0.66769544  0.21706214     0.20300
C481        C  0.50125767  0.64910242  0.25242108    -0.54500
C482        C  0.47377105  0.64263832  0.23937589     0.09400
C483        C  0.52797555  0.67711000  0.20666240    -0.54100
C484        C  0.50035473  0.67026837  0.19389179     0.10000
H485        H  0.53747344  0.72576190  0.25898816     0.14500
H486        H  0.45464397  0.66265493  0.20765199     0.00300
H487        H  0.50283797  0.63362335  0.26852743     0.14800
H488        H  0.54645155  0.68015935  0.19248908     0.14600
C489        C  0.47271492  0.84023300  0.27067054     0.86400
C490        C  0.50540978  0.86182023  0.25769668    -0.53800
C491        C  0.52556129  0.85261590  0.26436092     0.09300
C492        C  0.51166139  0.82289864  0.28350046     0.20300
C493        C  0.46214124  0.80760790  0.25922830    -0.54500
C494        C  0.48273455  0.79882399  0.26544112     0.09400
C495        C  0.47837867  0.83782529  0.30492762    -0.54100
C496        C  0.49897832  0.82932952  0.31165535     0.10000
H497        H  0.51215669  0.88267195  0.24469170     0.14500
H498        H  0.52853246  0.81597677  0.28860493     0.00300
H499        H  0.44075531  0.79315587  0.24660201     0.14800
H500        H  0.46698865  0.84152583  0.32323571     0.14600
C501        C  0.16607884  0.63372582  0.26889532     0.86400
C502        C  0.16496854  0.63678913  0.30352989    -0.53800
C503        C  0.17765729  0.66624303  0.31378368     0.09300
C504        C  0.18894820  0.69025484  0.28776856     0.20300
C505        C  0.14829214  0.64876054  0.25685928    -0.54500
C506        C  0.16073944  0.67865260  0.26624522     0.09400
C507        C  0.20023310  0.65654859  0.26084259    -0.54100
C508        C  0.21191429  0.68598423  0.27010967     0.10000
H509        H  0.15325677  0.61759061  0.31920700     0.14500
H510        H  0.19928034  0.71435700  0.29508857     0.00300
H511        H  0.12776852  0.63687118  0.24238021     0.14800
H512        H  0.21403386  0.64988753  0.24865143     0.14600
C513        C  0.32068445  0.85453964  0.24807912     0.86400
C514        C  0.30446837  0.82156245  0.26032009    -0.53800
C515        C  0.31533705  0.80445588  0.24977266     0.09300
C516        C  0.34294821  0.82241312  0.22839837     0.20300
C517        C  0.35533532  0.86822841  0.25682772    -0.54500
C518        C  0.36679144  0.85089292  0.24676761     0.09400
C519        C  0.32039853  0.85220710  0.21350477    -0.54100
C520        C  0.33272873  0.83628615  0.20292799     0.10000
H521        H  0.28488851  0.81200227  0.27549057     0.14500
H522        H  0.35182888  0.80819927  0.22029197     0.00300
H523        H  0.36984755  0.88987331  0.26839000     0.14800
H524        H  0.31257179  0.86386064  0.19852727     0.14600
O525        O  0.21300505  0.90106175  0.36082939    -0.57900
C526        C  0.25136930  0.90745433  0.29138380     0.74700
O527        O  0.17299979  0.90528436  0.26838488    -0.59000
C528        C  0.20240540  0.91297376  0.37758339     0.74700
C529        C  0.24241861  0.99102270  0.30603119     0.77100
Cd530      Cd  0.20970661  0.92430902  0.31293840     1.37500
O531        O  0.25338740  0.91654880  0.31832994    -0.57900
O532        O  0.25511046  0.97576514  0.30321072    -0.56700
C533        C  0.15416029  0.87917050  0.28018539     0.77100
O534        O  0.21338915  0.97549202  0.30991075    -0.59100
O535        O  0.23088135  0.90722481  0.27445995    -0.57500
O536        O  0.19324746  0.92902314  0.36440770    -0.57500
O537        O  0.15891512  0.87560738  0.30780792    -0.56700
O538        O  0.12459702  0.77881762  0.22352777    -0.57900
C539        C  0.09394495  0.80312747  0.16062586     0.74700
O540        O  0.03969108  0.79586208  0.23044464    -0.59000
C541        C  0.11083820  0.75649938  0.24216369     0.74700
C542        C  0.12994365  0.85309755  0.26224529     0.77100
Cd543      Cd  0.08958513  0.79793762  0.22645250     1.37500
O544        O  0.10814822  0.79365482  0.17660710    -0.57900
O545        O  0.11145225  0.82718302  0.27441777    -0.56700
C546        C  0.02295659  0.76673480  0.23288827     0.77100
O547        O  0.12828265  0.85442645  0.23364122    -0.59100
O548        O  0.07871796  0.81183483  0.17488914    -0.57500
O549        O  0.08713568  0.75350037  0.25436712    -0.57500
O550        O  0.03697922  0.75250893  0.23419881    -0.56700
O551        O  0.11843843  0.31169268  0.34670587    -0.57900
C552        C  0.10705531  0.34675036  0.27281894     0.74700
O553        O  0.14084902  0.28411636  0.29288093    -0.59000
C554        C  0.10342361  0.28689094  0.36203935     0.74700
C555        C  0.02813048  0.25229153  0.29568133     0.77100
Cd556      Cd  0.09480672  0.28813896  0.29718968     1.37500
O557        O  0.11376363  0.34358684  0.29991656    -0.57900
O558        O  0.04438733  0.28074280  0.30147207    -0.56700
C559        C  0.13632282  0.27537833  0.26558316     0.77100
O560        O  0.04253625  0.23919678  0.28933016    -0.59100
O561        O  0.09617018  0.32307564  0.25630117    -0.57500
O562        O  0.08608079  0.26232387  0.34726982    -0.57500
O563        O  0.11159870  0.27057376  0.25304996    -0.56700
O564        O  0.24112137  0.33870525  0.20657396    -0.57900
C565        C  0.20700788  0.27932337  0.14961230     0.74700
O566        O  0.21226788  0.23373296  0.22635322    -0.59000
C567        C  0.25919678  0.34530516  0.22928208     0.74700
C568        C  0.15993532  0.27353618  0.24883568     0.77100
Cd569      Cd  0.21237824  0.28232242  0.21482656     1.37500
O570        O  0.21791151  0.30431251  0.16391100    -0.57900
O571        O  0.15810152  0.26958511  0.22043604    -0.56700
C572        C  0.24151041  0.24757389  0.22502399     0.77100
O573        O  0.18437363  0.27821534  0.26181339    -0.59100
O574        O  0.19652254  0.25485717  0.16541950    -0.57500
O575        O  0.25540316  0.32258941  0.24497844    -0.57500
O576        O  0.25616900  0.27643952  0.22084273    -0.56700
C577        C  0.32431670  0.47152937  0.26851141     0.86400
C578        C  0.29877598  0.47773891  0.26083282    -0.53800
C579        C  0.30415819  0.50506661  0.27093765     0.09300
C580        C  0.33421401  0.52368655  0.28980870     0.20300
C581        C  0.35456526  0.50039244  0.25766536    -0.54500
C582        C  0.36002035  0.52765330  0.26918906     0.09400
C583        C  0.32650127  0.47379377  0.30353219    -0.54100
C584        C  0.33181549  0.50095794  0.31474620     0.10000
H585        H  0.27749045  0.46141767  0.24879573     0.14500
H586        H  0.33802141  0.54578004  0.29811719     0.00300
H587        H  0.37066338  0.49930412  0.24285924     0.14800
H588        H  0.32356428  0.45574470  0.31897218     0.14600
C589        C  0.15949241  0.52221267  0.22559504     0.86400
C590        C  0.13648577  0.48816737  0.23493562    -0.53800
C591        C  0.14513072  0.46809708  0.22668361     0.09300
C592        C  0.17604505  0.48389671  0.20966252     0.20300
C593        C  0.19118062  0.53003494  0.23845486    -0.54500
C594        C  0.19957293  0.50995165  0.23068219     0.09400
C595        C  0.16232743  0.52012121  0.19096927    -0.54100
C596        C  0.17083964  0.50019599  0.18264477     0.10000
H597        H  0.11509428  0.48041009  0.24669709     0.14500
H598        H  0.18369247  0.46810553  0.20354115     0.00300
H599        H  0.20553799  0.54955069  0.25323233     0.14800
H600        H  0.15675937  0.53158459  0.17352937     0.14600
C601        C  0.25289927  0.49614639  0.28046721    -0.20400
C602        C  0.28085708  0.51326358  0.26503561    -0.06900
C603        C  0.28294605  0.53147578  0.23963858     0.13900
C604        C  0.25637648  0.53102777  0.22943453    -0.20400
C605        C  0.22774101  0.51196495  0.24356262    -0.06900
C606        C  0.22633434  0.49517329  0.27000056     0.13900
C607        C  0.19651720  0.47456124  0.28622507    -0.23800
H608        H  0.25128049  0.48154940  0.29946282     0.15200
H609        H  0.25780302  0.54490201  0.20994949     0.15200
C610        C  0.31282195  0.55020613  0.22267341    -0.23700
H611        H  0.20002480  0.46500806  0.30772996     0.05400
H612        H  0.18130211  0.45488911  0.27127725     0.08700
H613        H  0.18542425  0.48749584  0.29178854     0.08700
H614        H  0.32000891  0.53478101  0.21389925     0.08700
H615        H  0.33119810  0.56734700  0.23820172     0.08700
H616        H  0.31046579  0.56285724  0.20307806     0.05400
C617        C  0.28848110  0.40139535  0.21622605    -0.20400
C618        C  0.28266145  0.37792339  0.23727039    -0.06900
C619        C  0.29865051  0.38646720  0.26558392     0.13900
C620        C  0.31611663  0.41776076  0.27351216    -0.20400
C621        C  0.31683511  0.44078150  0.25479154    -0.06900
C622        C  0.30619127  0.43277260  0.22420960     0.13900
C623        C  0.31335787  0.45676781  0.19970673    -0.23800
H624        H  0.27840279  0.39516572  0.19357146     0.15200
H625        H  0.32831149  0.42368966  0.29502844     0.15200
C626        C  0.29661496  0.36303520  0.28836764    -0.23700
H627        H  0.30451051  0.44592812  0.17711924     0.05400
H628        H  0.33878467  0.47266645  0.19790921     0.08700
H629        H  0.30279024  0.47035930  0.20405922     0.08700
H630        H  0.30496559  0.34918266  0.27808262     0.08700
H631        H  0.27235340  0.34768805  0.29590340     0.08700
H632        H  0.31104698  0.37415201  0.30899656     0.05400
C633        C  0.11502194  0.38208321  0.22931266    -0.20400
C634        C  0.11207265  0.37652500  0.26083297    -0.06900
C635        C  0.11375156  0.39941838  0.27992535     0.13900
C636        C  0.12150058  0.42811907  0.26740073    -0.20400
C637        C  0.12858858  0.43501419  0.23652987    -0.06900
C638        C  0.12309678  0.41095395  0.21687623     0.13900
C639        C  0.12412435  0.41487380  0.18277795    -0.23800
H640        H  0.11197728  0.36407719  0.21432494     0.15200
H641        H  0.12454660  0.44616792  0.28233134     0.15200
C642        C  0.10758736  0.39410213  0.31351564    -0.23700
H643        H  0.11556406  0.39259948  0.17112356     0.05400
H644        H  0.14796273  0.43104169  0.17492127     0.08700
H645        H  0.10910168  0.42351122  0.17544273     0.08700
H646        H  0.12564537  0.39157461  0.32510921     0.08700
H647        H  0.08437384  0.37303045  0.31727906     0.08700
H648        H  0.10796930  0.41376892  0.32428046     0.05400
C649        C  0.31774975  0.89542612  0.27783117    -0.20400
C650        C  0.30343949  0.86988294  0.25814942    -0.06900
C651        C  0.27168996  0.85744159  0.24942475     0.13900
C652        C  0.25618089  0.87095487  0.26044246    -0.20400
C653        C  0.27044699  0.89589765  0.28030957    -0.06900
C654        C  0.30162763  0.90836355  0.28917825     0.13900
C655        C  0.31821745  0.93561239  0.31018441    -0.23800
H656        H  0.34142454  0.90520662  0.28527861     0.15200
H657        H  0.23212923  0.86139531  0.25396783     0.15200
C658        C  0.25294207  0.82968066  0.22885437    -0.23700
H659        H  0.34297554  0.94342245  0.31347236     0.05400
H660        H  0.30730773  0.92922912  0.33284713     0.08700
H661        H  0.31720667  0.95529196  0.30055311     0.08700
H662        H  0.25189863  0.80887922  0.23800344     0.08700
H663        H  0.26209498  0.83464204  0.20554776     0.08700
H664        H  0.22848145  0.82318093  0.22643324     0.05400
C665        C  0.15233018  0.57788245  0.27759340    -0.20400
C666        C  0.15570777  0.60117353  0.25709078    -0.06900
C667        C  0.15441313  0.59488519  0.22556498     0.13900
C668        C  0.15116690  0.56719152  0.21613394    -0.20400
C669        C  0.15179211  0.54595007  0.23666822    -0.06900
C670        C  0.15021661  0.55070952  0.26809638     0.13900
C671        C  0.14711093  0.52789444  0.29244255    -0.23800
H672        H  0.15343220  0.58105997  0.30169024     0.15200
H673        H  0.15054940  0.56417524  0.19204452     0.15200
C674        C  0.15858065  0.61724084  0.20032867    -0.23700
H675        H  0.14774199  0.53630609  0.31568210     0.05400
H676        H  0.16613093  0.52360213  0.29154757     0.08700
H677        H  0.12450881  0.50586578  0.29002491     0.08700
H678        H  0.17774005  0.62125934  0.18551385     0.08700
H679        H  0.16464314  0.64019782  0.20781794     0.08700
H680        H  0.13697658  0.60709806  0.18641004     0.05400
C681        C  0.11759001  0.68801984  0.26836640    -0.20400
C682        C  0.14735344  0.69773218  0.25836966    -0.06900
C683        C  0.16444466  0.72621896  0.24262897     0.13900
C684        C  0.15190941  0.74465525  0.23819065    -0.20400
C685        C  0.12240067  0.73550075  0.24874381    -0.06900
C686        C  0.10489912  0.70649864  0.26395020     0.13900
C687        C  0.07282629  0.69454574  0.27540847    -0.23800
H688        H  0.10449836  0.66611889  0.28038428     0.15200
H689        H  0.16544205  0.76651685  0.22621683     0.15200
C690        C  0.19534207  0.73676427  0.22911872    -0.23700
H691        H  0.06246811  0.67123765  0.28598183     0.05400
H692        H  0.05743227  0.69272454  0.25624821     0.08700
H693        H  0.07370918  0.71031603  0.29293069     0.08700
H694        H  0.19268130  0.71864456  0.21366174     0.08700
H695        H  0.21251780  0.74130034  0.24731692     0.08700
H696        H  0.20445896  0.75843487  0.21563831     0.05400
C697        C  0.26132252  0.72985791  0.28928592    -0.20400
C698        C  0.24387458  0.71213312  0.26423076    -0.06900
C699        C  0.25557931  0.72247394  0.23453402     0.13900
C700        C  0.28289832  0.75148074  0.23085546    -0.20400
C701        C  0.29789499  0.77078182  0.25570834    -0.06900
C702        C  0.28824801  0.75900166  0.28542475     0.13900
C703        C  0.30482587  0.77754919  0.31336443    -0.23800
H704        H  0.25283656  0.72172289  0.31208497     0.15200
H705        H  0.29006982  0.76062252  0.20809758     0.15200
C706        C  0.23871297  0.70561421  0.20591420    -0.23700
H707        H  0.28932174  0.78247100  0.32592394     0.05400
H708        H  0.32638684  0.79976298  0.30779105     0.08700
H709        H  0.31131175  0.76412624  0.32838722     0.08700
H710        H  0.21533396  0.68532691  0.20991186     0.08700
H711        H  0.25244960  0.69794432  0.19417881     0.08700
H712        H  0.23598067  0.72142910  0.19039572     0.05400
C713        C  0.41295040  0.85230280  0.22779001    -0.20400
C714        C  0.39878899  0.85753026  0.25192831    -0.06900
C715        C  0.41335606  0.86416748  0.28081744     0.13900
C716        C  0.43914365  0.86154492  0.28540906    -0.20400
C717        C  0.45000249  0.85067157  0.26257732    -0.06900
C718        C  0.43858605  0.84929774  0.23247023     0.13900
C719        C  0.45310010  0.84515466  0.20487606    -0.23800
H720        H  0.40303289  0.84929972  0.20512587     0.15200
H721        H  0.45039813  0.86812802  0.30733833     0.15200
C722        C  0.40133062  0.87256610  0.30749624    -0.23700
H723        H  0.44153490  0.84593379  0.18350395     0.05400
H724        H  0.45138155  0.82269407  0.20520596     0.08700
H725        H  0.47772526  0.86413121  0.20339864     0.08700
H726        H  0.37658625  0.85465774  0.31120791     0.08700
H727        H  0.40430994  0.89545690  0.30347470     0.08700
H728        H  0.41417837  0.87435677  0.32885624     0.05400
C729        C  0.43552475  0.60630314  0.27657345    -0.20400
C730        C  0.44368942  0.61373379  0.24606831    -0.06900
C731        C  0.42378072  0.59301611  0.22321081     0.13900
C732        C  0.39642644  0.56562986  0.23165910    -0.20400
C733        C  0.38839470  0.55808725  0.26219537    -0.06900
C734        C  0.40826758  0.57882407  0.28502958     0.13900
C735        C  0.40226812  0.57170589  0.31840789    -0.23800
H736        H  0.45085700  0.62209900  0.29398339     0.15200
H737        H  0.38127218  0.54964529  0.21425400     0.15200
C738        C  0.43174143  0.59820117  0.19005346    -0.23700
H739        H  0.42172892  0.58936011  0.33267570     0.05400
H740        H  0.39964278  0.54915661  0.32360542     0.08700
H741        H  0.38139066  0.57145971  0.32510650     0.08700
H742        H  0.45441336  0.60066303  0.18698994     0.08700
H743        H  0.43216824  0.61884920  0.18133141     0.08700
H744        H  0.41444874  0.57843866  0.17595089     0.05400
C745        C  0.46030703  0.71615486  0.24993456    -0.20400
C746        C  0.48688222  0.72226950  0.23468604    -0.06900
C747        C  0.50880114  0.75288357  0.22528240     0.13900
C748        C  0.50568494  0.77689007  0.23474913    -0.20400
C749        C  0.48069703  0.77134760  0.25224047    -0.06900
C750        C  0.45670361  0.74048425  0.25853962     0.13900
C751        C  0.42812208  0.73315422  0.27526970    -0.23800
H752        H  0.44334890  0.69259578  0.25671667     0.15200
H753        H  0.52355548  0.80037955  0.22904240     0.15200
C754        C  0.53640253  0.76133015  0.20605961    -0.23700
H755        H  0.41264749  0.70794460  0.27962019     0.05400
H756        H  0.41485103  0.74072109  0.26147855     0.08700
H757        H  0.43443195  0.74508301  0.29742019     0.08700
H758        H  0.53644761  0.74094025  0.19812254     0.08700
H759        H  0.53624111  0.77419446  0.18550776     0.08700
H760        H  0.55808722  0.77634424  0.21923768     0.05400
C761        C  0.61330061  0.89685828  0.26354425    -0.20400
C762        C  0.61863621  0.88950329  0.23466476    -0.06900
C763        C  0.59320908  0.87355785  0.21406200     0.13900
C764        C  0.56319971  0.86373401  0.22371949    -0.20400
C765        C  0.55785965  0.86879325  0.25347314    -0.06900
C766        C  0.58325730  0.88640291  0.27326975     0.13900
C767        C  0.57868827  0.89375755  0.30487599    -0.23800
H768        H  0.63261274  0.90970695  0.27921147     0.15200
H769        H  0.54361476  0.85092193  0.20836173     0.15200
C770        C  0.59726629  0.86684969  0.18190597    -0.23700
H771        H  0.60108866  0.90939023  0.31672786     0.05400
H772        H  0.56535626  0.90523185  0.30392303     0.08700
H773        H  0.56602666  0.87211929  0.31836331     0.08700
H774        H  0.60540887  0.85061254  0.18189838     0.08700
H775        H  0.61419607  0.88870843  0.17011385     0.08700
H776        H  0.57516018  0.85592566  0.16870606     0.05400
C777        C  0.59930966  0.71964757  0.29616401    -0.20400
C778        C  0.62343937  0.72516054  0.27706975    -0.06900
C779        C  0.61573078  0.70797131  0.24992549     0.13900
C780        C  0.58452608  0.68982630  0.24059256    -0.20400
C781        C  0.56067584  0.68875018  0.25723701    -0.06900
C782        C  0.56815303  0.70091909  0.28718327     0.13900
C783        C  0.54431720  0.69597878  0.31009437    -0.23800
H784        H  0.60467969  0.73077529  0.31811309     0.15200
H785        H  0.57926162  0.67717075  0.21971996     0.15200
C786        C  0.63996228  0.70868379  0.23034021    -0.23700
H787        H  0.54739582  0.71851967  0.31581304     0.05400
H788        H  0.52017809  0.68024259  0.30227202     0.08700
H789        H  0.54755451  0.68561645  0.33113596     0.08700
H790        H  0.65404935  0.70205468  0.24414653     0.08700
H791        H  0.65507233  0.73210448  0.22039827     0.08700
H792        H  0.62945407  0.69225815  0.21115022     0.05400
C793        C  0.48007777  0.66967891  0.11019718    -0.20400
C794        C  0.49258540  0.65335435  0.09868573    -0.06900
C795        C  0.50033802  0.63666272  0.11880081     0.13900
C796        C  0.50105797  0.64162219  0.14993864    -0.20400
C797        C  0.49335056  0.66210926  0.16138487    -0.06900
C798        C  0.48095256  0.67494790  0.14142759     0.13900
C799        C  0.47064689  0.69581960  0.15215596    -0.23800
H800        H  0.47127866  0.67989301  0.09464169     0.15200
H801        H  0.50851208  0.63005968  0.16547898     0.15200
C802        C  0.50680271  0.61293219  0.10770097    -0.23700
H803        H  0.46523197  0.70651894  0.13282506     0.05400
H804        H  0.48920260  0.71478464  0.16598772     0.08700
H805        H  0.44920949  0.68245441  0.16546197     0.08700
H806        H  0.52818145  0.62371239  0.09421515     0.08700
H807        H  0.48697703  0.59572371  0.09349992     0.08700
H808        H  0.50979132  0.60030169  0.12692016     0.05400
C809        C  0.58290462  0.68181324  0.99457528    -0.20400
C810        C  0.57275197  0.69262689  0.01796595    -0.06900
C811        C  0.59520479  0.72063646  0.03292159     0.13900
C812        C  0.62586348  0.73665676  0.02350357    -0.20400
C813        C  0.63517107  0.72733983  0.99851158    -0.06900
C814        C  0.61356359  0.69911329  0.98419800     0.13900
C815        C  0.62236671  0.68705396  0.95788242    -0.23800
H816        H  0.56685285  0.66062017  0.98306068     0.15200
H817        H  0.64235679  0.75818005  0.03473646     0.15200
C818        C  0.58850968  0.73630297  0.05781674    -0.23700
H819        H  0.60301342  0.66388595  0.95062278     0.05400
H820        H  0.64230474  0.68499224  0.96451467     0.08700
H821        H  0.62951735  0.70220432  0.43807003     0.08700
H822        H  0.56410131  0.72527262  0.06417533     0.08700
H823        H  0.59525158  0.76138384  0.54800004     0.08700
H824        H  0.60183956  0.73766669  0.07866150     0.05400
C825        C  0.50780483  0.80412060  0.39097615    -0.20400
C826        C  0.51277103  0.82967521  0.40743915    -0.06900
C827        C  0.52078621  0.85722579  0.39163600     0.13900
C828        C  0.51834980  0.85680714  0.36003676    -0.20400
C829        C  0.50921983  0.82996143  0.34359444    -0.06900
C830        C  0.50591998  0.80389662  0.35901982     0.13900
C831        C  0.49847627  0.77526330  0.34235312    -0.23800
H832        H  0.50330915  0.78357584  0.40305512     0.15200
H833        H  0.52234764  0.87735508  0.34811387     0.15200
C834        C  0.53147812  0.88734216  0.40731441    -0.23700
H835        H  0.51771070  0.78057642  0.32708620     0.05400
H836        H  0.49518826  0.75662423  0.35824082     0.08700
H837        H  0.47686349  0.76641423  0.32887920     0.08700
H838        H  0.53557025  0.88637547  0.43203202     0.08700
H839        H  0.51404356  0.89382110  0.40369234     0.08700
H840        H  0.55380671  0.90578596  0.39758201     0.05400
C841        C  0.60837450  0.84365994  0.01581927    -0.20400
C842        C  0.62686200  0.87580610  0.01874875    -0.06900
C843        C  0.61341531  0.89373703  0.51136835     0.13900
C844        C  0.58200942  0.87871843  0.50235910    -0.20400
C845        C  0.56317221  0.84633453  0.49954351    -0.06900
C846        C  0.57719110  0.82854171  0.00662629     0.13900
C847        C  0.56064187  0.79398727  0.00494731    -0.23800
H848        H  0.61844436  0.82992969  0.02070206     0.15200
H849        H  0.57218137  0.89255855  0.49693999     0.15200
C850        C  0.63207443  0.92847672  0.51354289    -0.23700
H851        H  0.57183270  0.78745471  0.98792546     0.05400
H852        H  0.53636092  0.78340710  0.49711981     0.08700
H853        H  0.56174184  0.78437168  0.02744351     0.08700
H854        H  0.65119525  0.93839975  0.49697991     0.08700
H855        H  0.64207173  0.93525827  0.03742616     0.08700
H856        H  0.61778046  0.93848442  0.50831052     0.05400
C857        C  0.47535250  0.70583275  0.48482288    -0.20400
C858        C  0.48552630  0.70775673  0.01622780    -0.06900
C859        C  0.48852914  0.73150634  0.03463902     0.13900
C860        C  0.48250857  0.75296755  0.02182891    -0.20400
C861        C  0.47789434  0.75373786  0.99032894    -0.06900
C862        C  0.47248344  0.72933594  0.47158571     0.13900
C863        C  0.46468296  0.72766187  0.43824631    -0.23800
H864        H  0.47295538  0.68757658  0.47060299     0.15200
H865        H  0.48598552  0.77192042  0.03569548     0.15200
C866        C  0.50173451  0.73742454  0.06649991    -0.23700
H867        H  0.44291297  0.70531349  0.43335412     0.05400
H868        H  0.48364197  0.72923842  0.42483924     0.08700
H869        H  0.46101777  0.74632503  0.43080631     0.08700
H870        H  0.51060772  0.72255380  0.07312503     0.08700
H871        H  0.48381479  0.73398472  0.08271738     0.08700
H872        H  0.52168706  0.76165196  0.06827602     0.05400
C873        C  0.17327345  0.69409639  0.39267591    -0.20400
C874        C  0.17577458  0.67287951  0.41144387    -0.06900
C875        C  0.18217562  0.65208983  0.39780211     0.13900
C876        C  0.18595112  0.65339514  0.36629584    -0.20400
C877        C  0.18036003  0.67240569  0.34722239    -0.06900
C878        C  0.17411820  0.69334296  0.36084910     0.13900
C879        C  0.16592733  0.71334734  0.34270036    -0.23800
H880        H  0.16909443  0.71060082  0.40298028     0.15200
H881        H  0.19163811  0.63788193  0.35623379     0.15200
C882        C  0.18214625  0.62636330  0.41515117    -0.23700
H883        H  0.15687631  0.72412599  0.35737580     0.05400
H884        H  0.14753463  0.69919569  0.32574438     0.08700
H885        H  0.18672691  0.73258863  0.33162796     0.08700
H886        H  0.16108068  0.61363088  0.42910065     0.08700
H887        H  0.20336944  0.63547498  0.42931220     0.08700
H888        H  0.18178236  0.60927492  0.39966683     0.05400
C889        C  0.34644923  0.85649726  0.11867334    -0.20400
C890        C  0.34108719  0.82885680  0.10696844    -0.06900
C891        C  0.33647072  0.80489210  0.12714445     0.13900
C892        C  0.33416784  0.80809116  0.15829338    -0.20400
C893        C  0.33833639  0.83534045  0.17006929    -0.06900
C894        C  0.34707740  0.86077150  0.15004066     0.13900
C895        C  0.36007086  0.89338417  0.16069510    -0.23800
H896        H  0.35242994  0.87568259  0.10332606     0.15200
H897        H  0.32903932  0.78900814  0.17331849     0.15200
C898        C  0.33431280  0.77584195  0.11692712    -0.23700
H899        H  0.38188953  0.90939764  0.14856308     0.05400
H900        H  0.36635581  0.89639109  0.18518271     0.08700
H901        H  0.34325019  0.90039435  0.15563019     0.08700
H902        H  0.35423400  0.77510524  0.12645430     0.08700
H903        H  0.33423079  0.77413664  0.09195667     0.08700
H904        H  0.31253131  0.75529359  0.12526186     0.05400
C905        C  0.44380237  0.82086076  0.02717510    -0.20400
C906        C  0.45892361  0.83726147  0.00078579    -0.06900
C907        C  0.45054920  0.85802849  0.48739666     0.13900
C908        C  0.42321958  0.85569269  0.49693468    -0.20400
C909        C  0.40436952  0.83368682  0.02036860    -0.06900
C910        C  0.41547669  0.81632923  0.03534694     0.13900
C911        C  0.39825629  0.79145109  0.05917649    -0.23800
H912        H  0.45209024  0.80793270  0.03937327     0.15200
H913        H  0.41723613  0.87104938  0.48638681     0.15200
C914        C  0.47134044  0.88455712  0.46657265    -0.23700
H915        H  0.39570399  0.76959364  0.05160643     0.05400
H916        H  0.37479266  0.78584599  0.06364233     0.08700
H917        H  0.41160839  0.79849729  0.08091976     0.08700
H918        H  0.46042667  0.88079774  0.44365402     0.08700
H919        H  0.49466068  0.88812914  0.46499722     0.08700
H920        H  0.47498250  0.90633437  0.47580632     0.05400
C921        C  0.28332620  0.75729603  0.49228132    -0.20400
C922        C  0.28835518  0.76340587  0.02389136    -0.06900
C923        C  0.26319023  0.74643033  0.04382474     0.13900
C924        C  0.23479016  0.72284220  0.03216336    -0.20400
C925        C  0.23015971  0.71636655  0.00104097    -0.06900
C926        C  0.25435284  0.73400373  0.48085649     0.13900
C927        C  0.24980787  0.72924148  0.44700907    -0.23800
H928        H  0.30195779  0.77093950  0.47654335     0.15200
H929        H  0.21549771  0.71011746  0.04746918     0.15200
C930        C  0.26460176  0.75224472  0.07735099    -0.23700
H931        H  0.27099184  0.74614596  0.43446654     0.05400
H932        H  0.23077165  0.73221552  0.43899408     0.08700
H933        H  0.24432485  0.70585340  0.44117872     0.08700
H934        H  0.24750625  0.75848225  0.08291551     0.08700
H935        H  0.28740338  0.77101633  0.08515891     0.08700
H936        H  0.25893929  0.73101061  0.09023823     0.05400
C937        C  0.30849891  0.90014920  0.00808719    -0.20400
C938        C  0.27897802  0.87988672  0.99520733    -0.06900
C939        C  0.26930968  0.84857278  0.99076058     0.13900
C940        C  0.28901202  0.83841050  0.99973212    -0.20400
C941        C  0.31817095  0.85851118  0.01294068    -0.06900
C942        C  0.32827004  0.88984539  0.01683575     0.13900
C943        C  0.35931735  0.91207445  0.03123896    -0.23800
H944        H  0.31603332  0.92409750  0.01157170     0.15200
H945        H  0.28128765  0.81428946  0.99706212     0.15200
C946        C  0.23767546  0.82519845  0.97808793    -0.23700
H947        H  0.36319636  0.93547203  0.03358468     0.05400
H948        H  0.37839665  0.91547338  0.51691695     0.08700
H949        H  0.36078864  0.90358852  0.05422105     0.08700
H950        H  0.23541031  0.83138962  0.95429674     0.08700
H951        H  0.21953042  0.82441744  0.99222616     0.08700
H952        H  0.23353901  0.80155402  0.97789985     0.05400
C953        C  0.10772067  0.70427558  0.04440744    -0.20400
C954        C  0.09971101  0.72094898  0.02478632    -0.06900
C955        C  0.09568422  0.71360883  0.49327699     0.13900
C956        C  0.10524479  0.69445216  0.48232726    -0.20400
C957        C  0.11987920  0.68323578  0.00128487    -0.06900
C958        C  0.11781429  0.68557676  0.03329815     0.13900
C959        C  0.12762741  0.66996152  0.05632450    -0.23800
H960        H  0.10780846  0.70724127  0.06870564     0.15200
H961        H  0.10368784  0.69098122  0.45825201     0.15200
C962        C  0.08355443  0.72732177  0.47059588    -0.23700
H963        H  0.12540450  0.67556852  0.08000317     0.05400
H964        H  0.15214730  0.67734744  0.05347319     0.08700
H965        H  0.11250479  0.64453022  0.05422089     0.08700
H966        H  0.09962044  0.75278409  0.46932204     0.08700
H967        H  0.06016134  0.72143093  0.47727329     0.08700
H968        H  0.08147771  0.71832722  0.44732868     0.05400
C969        C  0.32557772  0.51825414  0.39736644    -0.20400
C970        C  0.34413774  0.50894025  0.41164215    -0.06900
C971        C  0.36240384  0.50224053  0.39377198     0.13900
C972        C  0.35858973  0.50122085  0.36221585    -0.20400
C973        C  0.33759661  0.50747631  0.34781683    -0.06900
C974        C  0.32163251  0.51720205  0.36568997     0.13900
C975        C  0.29860764  0.52450207  0.35303932    -0.23800
H976        H  0.31217673  0.52420378  0.41109287     0.15200
H977        H  0.37183739  0.49490299  0.34865828     0.15200
C978        C  0.38616533  0.49619032  0.40716673    -0.23700
H979        H  0.30651870  0.54879132  0.35833862     0.05400
H980        H  0.27572738  0.50890003  0.36358901     0.08700
H981        H  0.29520021  0.52153550  0.32836744     0.08700
H982        H  0.37914616  0.47201592  0.40248916     0.08700
H983        H  0.38949955  0.50012199  0.43200794     0.08700
H984        H  0.40893460  0.51216666  0.39658743     0.05400
C985        C  0.42927796  0.61087082  0.99995482    -0.20400
C986        C  0.45488582  0.60832742  0.00582626    -0.06900
C987        C  0.45060666  0.57865530  0.00667451     0.13900
C988        C  0.42076417  0.55251637  0.00182012    -0.20400
C989        C  0.39457061  0.55485639  0.99803000    -0.06900
C990        C  0.39924817  0.58487908  0.99770396     0.13900
C991        C  0.37345689  0.59047398  0.49726874    -0.23800
H992        H  0.43241382  0.63357753  0.99936127     0.15200
H993        H  0.41803937  0.53005066  0.00115336     0.15200
C994        C  0.47684147  0.57400229  0.01391133    -0.23700
H995        H  0.37706904  0.60620653  0.51616630     0.05400
H996        H  0.35093762  0.57030199  0.00025031     0.08700
H997        H  0.37324501  0.60158713  0.47541156     0.08700
H998        H  0.48828915  0.58536728  0.03568824     0.08700
H999        H  0.49385828  0.58358855  0.99532614     0.08700
H1000       H  0.46860141  0.54911337  0.01625519     0.05400
C1001       C  0.19671515  0.50051500  0.10242853    -0.20400
C1002       C  0.16974599  0.49310661  0.08609992    -0.06900
C1003       C  0.14182728  0.48156699  0.10189319     0.13900
C1004       C  0.14252791  0.48190949  0.13368205    -0.20400
C1005       C  0.17031857  0.49289154  0.15009999    -0.06900
C1006       C  0.19746124  0.50102793  0.13438540     0.13900
C1007       C  0.22772543  0.51295234  0.15101768    -0.23800
H1008       H  0.21779557  0.50822912  0.09024452     0.15200
H1009       H  0.12145253  0.47488899  0.14575793     0.15200
C1010       C  0.11107916  0.46923984  0.08583543    -0.23700
H1011       H  0.24674880  0.51853951  0.13525853     0.05400
H1012       H  0.22571368  0.49533426  0.16754483     0.08700
H1013       H  0.23396747  0.53438911  0.16308983     0.08700
H1014       H  0.11255574  0.46798151  0.06086739     0.08700
H1015       H  0.10199424  0.48415602  0.09074427     0.08700
H1016       H  0.09437156  0.44541565  0.09411055     0.05400
C1017       C  0.18455646  0.58497805  0.01709247    -0.20400
C1018       C  0.16241952  0.55676500  0.00299636    -0.06900
C1019       C  0.13792018  0.55611422  0.98597927     0.13900
C1020       C  0.13774035  0.58350999  0.98249754    -0.20400
C1021       C  0.16084697  0.61139178  0.99547040    -0.06900
C1022       C  0.18396574  0.61189686  0.01378225     0.13900
C1023       C  0.20746690  0.64048460  0.03083348    -0.23800
H1024       H  0.20273407  0.58594869  0.03122708     0.15200
H1025       H  0.11965091  0.58341112  0.96900540     0.15200
C1026       C  0.11136167  0.52749005  0.97177141    -0.23700
H1027       H  0.22230991  0.63607350  0.04616393     0.05400
H1028       H  0.19544521  0.64857927  0.04496847     0.08700
H1029       H  0.22235561  0.65916513  0.51495472     0.08700
H1030       H  0.09924851  0.50925741  0.98939015     0.08700
H1031       H  0.11761096  0.51890978  0.45511899     0.08700
H1032       H  0.09380211  0.53164526  0.96149698     0.05400
C1033       C  0.23431203  0.50342204  0.47606059    -0.20400
C1034       C  0.23622255  0.52027503  0.00144064    -0.06900
C1035       C  0.26465054  0.53731441  0.01718430     0.13900
C1036       C  0.28869322  0.53297221  0.01000217    -0.20400
C1037       C  0.28571517  0.51411360  0.98567508    -0.06900
C1038       C  0.25855920  0.49976262  0.46825744     0.13900
C1039       C  0.25352439  0.47956125  0.44149313    -0.23800
H1040       H  0.21275347  0.49118556  0.46336221     0.15200
H1041       H  0.30885259  0.54269719  0.02478640     0.15200
C1042       C  0.26927153  0.55932395  0.04196278    -0.23700
H1043       H  0.23306967  0.45599120  0.44552481     0.05400
H1044       H  0.27358441  0.47746328  0.43716208     0.08700
H1045       H  0.24918225  0.48943432  0.42071234     0.08700
H1046       H  0.25253434  0.54682615  0.06033706     0.08700
H1047       H  0.26562393  0.57745100  0.03249906     0.08700
H1048       H  0.29300837  0.57088429  0.05194976     0.05400
C1049       C  0.27584075  0.37995884  0.49451312    -0.20400
C1050       C  0.28579501  0.37427132  0.02004827    -0.06900
C1051       C  0.31159652  0.39845428  0.03564093     0.13900
C1052       C  0.32584551  0.42888326  0.02411011    -0.20400
C1053       C  0.31405370  0.43591351  0.99802318    -0.06900
C1054       C  0.28802217  0.41009163  0.48386090     0.13900
C1055       C  0.27083808  0.41371791  0.45709394    -0.23800
H1056       H  0.25605455  0.36109008  0.48275582     0.15200
H1057       H  0.34507407  0.44709602  0.03674824     0.15200
C1058       C  0.32417005  0.39230664  0.06433304    -0.23700
H1059       H  0.24966071  0.39140329  0.45069100     0.05400
H1060       H  0.28497167  0.42190374  0.43639818     0.08700
H1061       H  0.26275960  0.42920475  0.46269104     0.08700
H1062       H  0.33024101  0.37487511  0.05991405     0.08700
H1063       H  0.30667083  0.38364026  0.08249119     0.08700
H1064       H  0.34532300  0.41357923  0.07280896     0.05400
C1065       C  0.13061158  0.40471236  0.45930010    -0.20400
C1066       C  0.12467449  0.38294330  0.98251199    -0.06900
C1067       C  0.12565974  0.39186027  0.01298530     0.13900
C1068       C  0.13363854  0.42202730  0.01911366    -0.20400
C1069       C  0.14057638  0.44380956  0.99588169    -0.06900
C1070       C  0.13823233  0.43469402  0.96526493     0.13900
C1071       C  0.14343260  0.45669846  0.43956402    -0.23800
H1072       H  0.12893003  0.39774989  0.43587741     0.15200
H1073       H  0.13533707  0.42903537  0.04254674     0.15200
C1074       C  0.11975660  0.37033543  0.03949065    -0.23700
H1075       H  0.14227693  0.44622251  0.41731865     0.05400
H1076       H  0.16660632  0.47822971  0.94148001     0.08700
H1077       H  0.12517154  0.46221620  0.43925632     0.08700
H1078       H  0.13569147  0.36181063  0.03870764     0.08700
H1079       H  0.09535503  0.35057064  0.03886081     0.08700
H1080       H  0.12360529  0.38199529  0.06163212     0.05400
C1081       C  0.89902622  0.61100529  0.49957511    -0.20400
C1082       C  0.89735211  0.61509997  0.03009805    -0.06900
C1083       C  0.88895834  0.58972156  0.05012975     0.13900
C1084       C  0.88140118  0.56112488  0.03817254    -0.20400
C1085       C  0.88118669  0.55680474  0.00681603    -0.06900
C1086       C  0.89117615  0.58225535  0.48807444     0.13900
C1087       C  0.89354380  0.57918713  0.45442312    -0.23800
H1088       H  0.90614955  0.63013264  0.48384007     0.15200
H1089       H  0.87408239  0.54148934  0.05329802     0.15200
C1090       C  0.88686536  0.59194557  0.08397822    -0.23700
H1091       H  0.90364857  0.60176776  0.44238865     0.05400
H1092       H  0.87030869  0.56347982  0.44431848     0.08700
H1093       H  0.90859894  0.57006703  0.45037534     0.08700
H1094       H  0.86961044  0.59812835  0.08895295     0.08700
H1095       H  0.90987465  0.60956566  0.09351251     0.08700
H1096       H  0.87939854  0.56967844  0.09577065     0.05400
C1097       C  0.73129677  0.59535541  0.96275646    -0.20400
C1098       C  0.73377639  0.61811622  0.98214519    -0.06900
C1099       C  0.71465373  0.60842321  0.00800332     0.13900
C1100       C  0.69821590  0.57708548  0.01639254    -0.20400
C1101       C  0.70087729  0.55512769  0.00023941    -0.06900
C1102       C  0.71419217  0.56386329  0.97089669     0.13900
C1103       C  0.70997182  0.54077246  0.44767459    -0.23800
H1104       H  0.74389673  0.60258324  0.44173608     0.15200
H1105       H  0.68385279  0.57027327  0.03615679     0.15200
C1106       C  0.71163184  0.63064793  0.02741108    -0.23700
H1107       H  0.72054721  0.55210312  0.42567008     0.05400
H1108       H  0.68541182  0.52367837  0.94336448     0.08700
H1109       H  0.72080089  0.52783363  0.45498098     0.08700
H1110       H  0.70445921  0.64392513  0.01303910     0.08700
H1111       H  0.73391866  0.64661417  0.03921507     0.08700
H1112       H  0.69393237  0.61847765  0.04525036     0.05400
C1113       C  0.79209573  0.50291989  0.02787218    -0.20400
C1114       C  0.78701227  0.47841494  0.00982772    -0.06900
C1115       C  0.75698462  0.45489240  0.50254009     0.13900
C1116       C  0.73237196  0.45835054  0.50966358    -0.20400
C1117       C  0.73732495  0.48398935  0.02591527    -0.06900
C1118       C  0.76767357  0.50581788  0.03649772     0.13900
C1119       C  0.77546996  0.53315599  0.05585911    -0.23800
H1120       H  0.81554726  0.52067285  0.03438272     0.15200
H1121       H  0.70976768  0.44211531  0.50052761     0.15200
C1122       C  0.75073683  0.42705032  0.48498756    -0.23700
H1123       H  0.79127534  0.55492638  0.04332901     0.05400
H1124       H  0.78730089  0.53253885  0.07710076     0.08700
H1125       H  0.75483928  0.53344153  0.06252300     0.08700
H1126       H  0.75774894  0.41342501  0.49893655     0.08700
H1127       H  0.76393616  0.43420932  0.46360028     0.08700
H1128       H  0.72576685  0.41167397  0.47910453     0.05400
C1129       C  0.59207402  0.38430009  0.50240767    -0.20400
C1130       C  0.56534274  0.38661737  0.00442805    -0.06900
C1131       C  0.56982818  0.41621331  0.00916823     0.13900
C1132       C  0.60003121  0.44194149  0.01317190    -0.20400
C1133       C  0.62612430  0.43969014  0.01082747    -0.06900
C1134       C  0.62173734  0.41064270  0.00489654     0.13900
C1135       C  0.64871936  0.40715449  0.49809264    -0.23800
H1136       H  0.58994370  0.36250695  0.49842647     0.15200
H1137       H  0.60333107  0.46426468  0.01780208     0.15200
C1138       C  0.54382184  0.42204137  0.00832318    -0.23700
H1139       H  0.64101880  0.38361895  0.49006310     0.05400
H1140       H  0.66196346  0.41044727  0.01958943     0.08700
H1141       H  0.66279784  0.42369849  0.47980588     0.08700
H1142       H  0.53094333  0.41428479  0.02988980     0.08700
H1143       H  0.52826937  0.41045393  0.98847229     0.08700
H1144       H  0.55268756  0.44709057  0.00602438     0.05400
C1145       C  0.51015044  0.25184568  0.48608363    -0.20400
C1146       C  0.52437606  0.28073067  0.00335877    -0.06900
C1147       C  0.54063634  0.28304473  0.03062535     0.13900
C1148       C  0.54315535  0.25809727  0.04008801    -0.20400
C1149       C  0.52858246  0.23046761  0.02379144    -0.06900
C1150       C  0.51196135  0.22804007  0.99689433     0.13900
C1151       C  0.49741061  0.19820684  0.47695817    -0.23800
H1152       H  0.49513663  0.24870858  0.46696799     0.15200
H1153       H  0.55542772  0.25977881  0.06094011     0.15200
C1154       C  0.55318342  0.31058248  0.05109809    -0.23700
H1155       H  0.48639469  0.20059416  0.45591091     0.05400
H1156       H  0.47746552  0.18001990  0.99336649     0.08700
H1157       H  0.51506190  0.19316318  0.47021125     0.08700
H1158       H  0.53433715  0.31402086  0.05748985     0.08700
H1159       H  0.57150724  0.33148827  0.03942729     0.08700
H1160       H  0.56345853  0.30757817  0.07237929     0.05400
C1161       C  0.41854689  0.10851069  0.99446440    -0.20400
C1162       C  0.39718495  0.10750078  0.01483403    -0.06900
C1163       C  0.40662848  0.11610754  0.04540068     0.13900
C1164       C  0.43719976  0.12648808  0.05430568    -0.20400
C1165       C  0.45902001  0.12907035  0.03364675    -0.06900
C1166       C  0.44912702  0.11861762  0.00350471     0.13900
C1167       C  0.47076346  0.11751326  0.47945363    -0.23800
H1168       H  0.41163363  0.10086147  0.47032128     0.15200
H1169       H  0.44457286  0.13428242  0.07735056     0.15200
C1170       C  0.38545313  0.11649927  0.06844964    -0.23700
H1171       H  0.45987305  0.11169427  0.45644562     0.05400
H1172       H  0.47604669  0.10126969  0.98626381     0.08700
H1173       H  0.49244002  0.14048860  0.47793261     0.08700
H1174       H  0.36539874  0.09270286  0.07239694     0.08700
H1175       H  0.37724150  0.13162374  0.06020882     0.08700
H1176       H  0.39735540  0.12552721  0.09071264     0.05400
C1177       C  0.42365022  0.30775344  0.49666565    -0.20400
C1178       C  0.44782957  0.31077491  0.01398306    -0.06900
C1179       C  0.44126987  0.29968770  0.04453370     0.13900
C1180       C  0.41042905  0.27997477  0.05316323    -0.20400
C1181       C  0.38581625  0.27192194  0.03276252    -0.06900
C1182       C  0.39273528  0.28844069  0.50548863     0.13900
C1183       C  0.36757746  0.28579677  0.48464415    -0.23800
H1184       H  0.42814402  0.31988776  0.47527280     0.15200
H1185       H  0.40576791  0.26972334  0.07571199     0.15200
C1186       C  0.46570407  0.30618149  0.06840585    -0.23700
H1187       H  0.37721309  0.30231438  0.46522630     0.05400
H1188       H  0.35235909  0.29097104  0.49737908     0.08700
H1189       H  0.35376111  0.26224310  0.47497029     0.08700
H1190       H  0.48962646  0.32216511  0.06081155     0.08700
H1191       H  0.46352292  0.28419367  0.07568661     0.08700
H1192       H  0.46224994  0.31679925  0.08845097     0.05400
C1193       C  0.86857387  0.41542385  0.03949148    -0.20400
C1194       C  0.86832750  0.39615848  0.01721413    -0.06900
C1195       C  0.86849905  0.40405603  0.98640654     0.13900
C1196       C  0.86778675  0.43034948  0.97861094    -0.20400
C1197       C  0.86563153  0.44889305  0.00063395    -0.06900
C1198       C  0.86749445  0.44172497  0.03188108     0.13900
C1199       C  0.86539202  0.45904112  0.55972824    -0.23800
H1200       H  0.86855653  0.40918789  0.06316405     0.15200
H1201       H  0.86728609  0.43467761  0.95475223     0.15200
C1202       C  0.86734727  0.38370407  0.96139617    -0.23700
H1203       H  0.86566148  0.44864118  0.58203938     0.05400
H1204       H  0.84663906  0.46212152  0.05722175     0.08700
H1205       H  0.88588048  0.48295062  0.55964421     0.08700
H1206       H  0.86504550  0.39191624  0.93853641     0.08700
H1207       H  0.84721752  0.35973045  0.96445467     0.08700
H1208       H  0.88907993  0.38382852  0.96172215     0.05400
C1209       C  0.90185938  0.29686175  0.03949149    -0.20400
C1210       C  0.89016699  0.30935462  0.01827321    -0.06900
C1211       C  0.89343276  0.30474031  0.48751148     0.13900
C1212       C  0.90382572  0.28548167  0.47890482    -0.20400
C1213       C  0.91268661  0.27180863  0.99961072    -0.06900
C1214       C  0.91252497  0.27792641  0.03075799     0.13900
C1215       C  0.92199777  0.26337824  0.05525361    -0.23800
H1216       H  0.90213210  0.30076135  0.06349033     0.15200
H1217       H  0.90551541  0.28209443  0.45497208     0.15200
C1218       C  0.88656797  0.32093484  0.46239002    -0.23700
H1219       H  0.91919763  0.26972405  0.07841370     0.05400
H1220       H  0.94675662  0.27132916  0.05283863     0.08700
H1221       H  0.90738596  0.23780053  0.05365184     0.08700
H1222       H  0.90223257  0.34623634  0.46465892     0.08700
H1223       H  0.86218904  0.31453250  0.46241058     0.08700
H1224       H  0.89064440  0.31499478  0.43957277     0.05400
C1225       C  0.63243843  0.18971364  0.03739262    -0.20400
C1226       C  0.62818551  0.16458442  0.02124789    -0.06900
C1227       C  0.59894000  0.13918912  0.51506144     0.13900
C1228       C  0.57334429  0.14029663  0.52428110    -0.20400
C1229       C  0.57632797  0.16699084  0.03925937    -0.06900
C1230       C  0.60734051  0.19147098  0.04656086     0.13900
C1231       C  0.61599100  0.22073032  0.06304394    -0.23800
H1232       H  0.65585421  0.20875485  0.04221867     0.15200
H1233       H  0.55071478  0.12065358  0.51907898     0.15200
C1234       C  0.59369168  0.11154594  0.49785024    -0.23700
H1235       H  0.63123397  0.24106541  0.04844493     0.05400
H1236       H  0.62883148  0.22231193  0.08434086     0.08700
H1237       H  0.59640164  0.22266456  0.06917870     0.08700
H1238       H  0.60395408  0.10018140  0.51070297     0.08700
H1239       H  0.60459186  0.11899066  0.47519973     0.08700
H1240       H  0.56866450  0.09412262  0.49430390     0.05400
C1241       C  0.70072173  0.11523341  0.03247096    -0.20400
C1242       C  0.71195531  0.13659504  0.50741513    -0.06900
C1243       C  0.73880716  0.14266305  0.49144201     0.13900
C1244       C  0.75552289  0.12973642  0.50203710    -0.20400
C1245       C  0.74437561  0.10868914  0.02707022    -0.06900
C1246       C  0.71739254  0.10181849  0.04258700     0.13900
C1247       C  0.70624191  0.08103835  0.07025983    -0.23800
H1248       H  0.68086004  0.11023912  0.04529992     0.15200
H1249       H  0.77613674  0.13495234  0.49010743     0.15200
C1250       C  0.75127423  0.16326798  0.46347846    -0.23700
H1251       H  0.68490496  0.07839518  0.07954633     0.05400
H1252       H  0.72429570  0.09091470  0.08846461     0.08700
H1253       H  0.70079238  0.05765038  0.06424145     0.08700
H1254       H  0.75759866  0.18698707  0.46842736     0.08700
H1255       H  0.73455469  0.15375388  0.44426720     0.08700
H1256       H  0.77272797  0.16539846  0.45522517     0.05400
C1257       C  0.73193604  0.25795536  0.01926458    -0.20400
C1258       C  0.73052072  0.24093398  0.99401823    -0.06900
C1259       C  0.75602669  0.25499196  0.47315765     0.13900
C1260       C  0.78253450  0.28350816  0.48003311    -0.20400
C1261       C  0.78600577  0.29625007  0.00891037    -0.06900
C1262       C  0.75944870  0.28594598  0.02685702     0.13900
C1263       C  0.75952256  0.30378232  0.05367802    -0.23800
H1264       H  0.71247161  0.24802783  0.03451804     0.15200
H1265       H  0.80208644  0.29277302  0.46493051     0.15200
C1266       C  0.75689548  0.23890150  0.44518650    -0.23700
H1267       H  0.73661597  0.29189574  0.06481224     0.05400
H1268       H  0.76470520  0.32680586  0.04583379     0.08700
H1269       H  0.77682049  0.30682482  0.07103709     0.08700
H1270       H  0.73591234  0.21558995  0.44217255     0.08700
H1271       H  0.77727621  0.23652312  0.44657570     0.08700
H1272       H  0.75919199  0.25297561  0.42472375     0.05400
C1273       C  0.86790512  0.51592303  0.40114703    -0.20400
C1274       C  0.84105858  0.50359444  0.41847469    -0.06900
C1275       C  0.81258271  0.49464035  0.40355336     0.13900
C1276       C  0.81113010  0.49417012  0.37159782    -0.20400
C1277       C  0.83749363  0.50315890  0.35453419    -0.06900
C1278       C  0.86656971  0.51622792  0.36941836     0.13900
C1279       C  0.89651458  0.52975382  0.35254849    -0.23800
H1280       H  0.88996376  0.52389227  0.41248240     0.15200
H1281       H  0.78896404  0.48496232  0.36003151     0.15200
C1282       C  0.78305765  0.48405868  0.42009015    -0.23700
H1283       H  0.91257202  0.55407419  0.35966254     0.05400
H1284       H  0.89339679  0.52996911  0.32758887     0.08700
H1285       H  0.90735173  0.51628532  0.35802251     0.08700
H1286       H  0.77397110  0.49879385  0.41317446     0.08700
H1287       H  0.78620590  0.48564957  0.44493809     0.08700
H1288       H  0.76554477  0.45972809  0.41412607     0.05400
C1289       C  0.88673787  0.59802014  0.22910597    -0.20400
C1290       C  0.89290584  0.61938012  0.25208621    -0.06900
C1291       C  0.88961843  0.60945505  0.28283883     0.13900
C1292       C  0.87852394  0.57829412  0.28946499    -0.20400
C1293       C  0.87131872  0.55674887  0.26646406    -0.06900
C1294       C  0.87660856  0.56705383  0.23582068     0.13900
C1295       C  0.87131481  0.54579443  0.20993780    -0.23800
H1296       H  0.89003062  0.60566906  0.20555797     0.15200
H1297       H  0.87485529  0.57046613  0.31296881     0.15200
C1298       C  0.89667960  0.63106936  0.30888905    -0.23700
H1299       H  0.87418450  0.55730112  0.18751039     0.05400
H1300       H  0.84765376  0.52490132  0.21050859     0.08700
H1301       H  0.88849916  0.53886496  0.21134907     0.08700
H1302       H  0.88225555  0.64131995  0.30678877     0.08700
H1303       H  0.92159822  0.64964139  0.30898083     0.08700
H1304       H  0.89174417  0.61895424  0.33121764     0.05400
C1305       C  0.68499089  0.47985339  0.14711210    -0.20400
C1306       C  0.66764571  0.49135025  0.15833172    -0.06900
C1307       C  0.64917093  0.49683880  0.13795158     0.13900
C1308       C  0.65154199  0.49414494  0.10677693    -0.20400
C1309       C  0.67226213  0.48684256  0.09525327    -0.06900
C1310       C  0.68803312  0.47798446  0.11574536     0.13900
C1311       C  0.70985932  0.46879982  0.10529599    -0.23800
H1312       H  0.69818241  0.47460909  0.16287759     0.15200
H1313       H  0.63840475  0.49967982  0.09114900     0.15200
C1314       C  0.62715800  0.50616683  0.14779482    -0.23700
H1315       H  0.72191714  0.46519412  0.12470545     0.05400
H1316       H  0.72780345  0.48720433  0.09076684     0.08700
H1317       H  0.69699202  0.44676560  0.09274894     0.08700
H1318       H  0.63453289  0.52929579  0.13817324     0.08700
H1319       H  0.62569219  0.50712947  0.17273774     0.08700
H1320       H  0.60348881  0.48914537  0.13914072     0.05400
C1321       C  0.69383218  0.57804233  0.26894899    -0.20400
C1322       C  0.70029775  0.57180242  0.23992579    -0.06900
C1323       C  0.72470277  0.59718649  0.22317809     0.13900
C1324       C  0.74117740  0.62668625  0.23599962    -0.20400
C1325       C  0.73587262  0.63202237  0.26554968    -0.06900
C1326       C  0.71135519  0.60751284  0.28203042     0.13900
C1327       C  0.70376712  0.61187401  0.31370181    -0.23800
H1328       H  0.67663819  0.55941533  0.28288224     0.15200
H1329       H  0.75985476  0.64561268  0.22330778     0.15200
C1330       C  0.73551884  0.59423528  0.19242141    -0.23700
H1331       H  0.68274690  0.59072747  0.32242530     0.05400
H1332       H  0.69942807  0.63096143  0.31372846     0.08700
H1333       H  0.72314058  0.61717087  0.32958586     0.08700
H1334       H  0.71870477  0.59141363  0.17443424     0.08700
H1335       H  0.73949651  0.57499601  0.19230641     0.08700
H1336       H  0.75784432  0.61535071  0.18602677     0.05400
C1337       C  0.72071787  0.47189447  0.26483777    -0.20400
C1338       C  0.72724789  0.49221442  0.24015857    -0.06900
C1339       C  0.75660094  0.50681154  0.22654551     0.13900
C1340       C  0.77937248  0.50247827  0.23921825    -0.20400
C1341       C  0.77359862  0.48375697  0.26490849    -0.06900
C1342       C  0.74365575  0.46739587  0.27739530     0.13900
C1343       C  0.73555067  0.44594753  0.30433895    -0.23800
H1344       H  0.69819629  0.46075909  0.27530083     0.15200
H1345       H  0.80222868  0.51456096  0.22950168     0.15200
C1346       C  0.76426322  0.52749225  0.19900953    -0.23700
H1347       H  0.71627371  0.42241597  0.29797077     0.05400
H1348       H  0.72805461  0.45433145  0.32331987     0.08700
H1349       H  0.75526758  0.44422756  0.31259870     0.08700
H1350       H  0.76352007  0.54805803  0.20468331     0.08700
H1351       H  0.74749096  0.51468474  0.18035001     0.08700
H1352       H  0.78783545  0.53581784  0.19060544     0.05400
C1353       C  0.52574567  0.32223327  0.37009610    -0.20400
C1354       C  0.51580982  0.33987106  0.35526155    -0.06900
C1355       C  0.50657017  0.35646377  0.37272474     0.13900
C1356       C  0.50595479  0.35343805  0.40443988    -0.20400
C1357       C  0.51378943  0.33390285  0.41931768    -0.06900
C1358       C  0.52433146  0.31844560  0.40176367     0.13900
C1359       C  0.53077325  0.29521227  0.41530629    -0.23800
H1360       H  0.53240272  0.30936259  0.35667152     0.15200
H1361       H  0.49839080  0.36583393  0.41767628     0.15200
C1362       C  0.49701814  0.37738622  0.35884102    -0.23700
H1363       H  0.53649542  0.28382133  0.39771239     0.05400
H1364       H  0.50962189  0.27699935  0.42658180     0.08700
H1365       H  0.55063995  0.30615916  0.43139576     0.08700
H1366       H  0.50053210  0.38046350  0.33400904     0.08700
H1367       H  0.51112722  0.40069087  0.36906239     0.08700
H1368       H  0.47220768  0.36784522  0.36349948     0.05400
C1369       C  0.57395092  0.40413212  0.23874699    -0.20400
C1370       C  0.56730374  0.39879062  0.26965823    -0.06900
C1371       C  0.58765664  0.42131420  0.29091161     0.13900
C1372       C  0.61456315  0.44834541  0.28045927    -0.20400
C1373       C  0.62151636  0.45341428  0.24936282    -0.06900
C1374       C  0.60036837  0.43106987  0.22822789     0.13900
C1375       C  0.60382834  0.43575279  0.19438084    -0.23800
H1376       H  0.55809969  0.38693782  0.22256265     0.15200
H1377       H  0.63036198  0.46558734  0.29665564     0.15200
C1378       C  0.58058130  0.41769895  0.32431035    -0.23700
H1379       H  0.58328961  0.41736388  0.18178843     0.05400
H1380       H  0.62389899  0.43518726  0.18650453     0.08700
H1381       H  0.60603626  0.45785081  0.18831427     0.08700
H1382       H  0.58085739  0.39770186  0.33398770     0.08700
H1383       H  0.55752700  0.41435009  0.32768537     0.08700
H1384       H  0.59790879  0.43846048  0.33725556     0.05400
C1385       C  0.53386966  0.21082356  0.16571445    -0.20400
C1386       C  0.51008128  0.18499281  0.18084696    -0.06900
C1387       C  0.48763431  0.15923867  0.16403413     0.13900
C1388       C  0.49080880  0.15908628  0.13242408    -0.20400
C1389       C  0.51639649  0.18384233  0.11770158    -0.06900
C1390       C  0.53766399  0.21040068  0.13444161     0.13900
C1391       C  0.56578812  0.23788293  0.12059850    -0.23800
H1392       H  0.55171120  0.23008258  0.17881120     0.15200
H1393       H  0.47485810  0.13855297  0.11971009     0.15200
C1394       C  0.46179417  0.13114161  0.17984244    -0.23700
H1395       H  0.58703542  0.24088928  0.13153253     0.05400
H1396       H  0.56714209  0.23541210  0.09598062     0.08700
H1397       H  0.56523498  0.25900349  0.12423164     0.08700
H1398       H  0.44787882  0.13778892  0.19286563     0.08700
H1399       H  0.47145916  0.12115779  0.19574445     0.08700
H1400       H  0.44616588  0.11296395  0.16341082     0.05400
C1401       C  0.54415157  0.26522110  0.23795322    -0.20400
C1402       C  0.54627382  0.24826135  0.26217155    -0.06900
C1403       C  0.55045688  0.25981067  0.29202182     0.13900
C1404       C  0.54602689  0.28427170  0.29726539    -0.20400
C1405       C  0.53954880  0.29844186  0.27317855    -0.06900
C1406       C  0.54205915  0.29098024  0.24305361     0.13900
C1407       C  0.54250619  0.31009947  0.21628506    -0.23800
H1408       H  0.54265642  0.25743777  0.21492195     0.15200
H1409       H  0.54611944  0.29115556  0.32026589     0.15200
C1410       C  0.55863071  0.24603953  0.31834085    -0.23700
H1411       H  0.54702378  0.30229049  0.19475553     0.05400
H1412       H  0.56126381  0.33463200  0.21971145     0.08700
H1413       H  0.52013702  0.30856095  0.21342595     0.08700
H1414       H  0.58205287  0.25026650  0.31495695     0.08700
H1415       H  0.54196339  0.22081907  0.32016123     0.08700
H1416       H  0.55898737  0.25664639  0.34025437     0.05400
C1417       C  0.39821829  0.29811922  0.26038353    -0.20400
C1418       C  0.39139060  0.27848040  0.23561344    -0.06900
C1419       C  0.41617621  0.28229671  0.21814422     0.13900
C1420       C  0.44667216  0.30197968  0.22883515    -0.20400
C1421       C  0.45306007  0.31722005  0.25692023    -0.06900
C1422       C  0.42881685  0.31868919  0.27013001     0.13900
C1423       C  0.43433344  0.34273788  0.29294827    -0.23800
H1424       H  0.37953898  0.29759115  0.27219323     0.15200
H1425       H  0.46550649  0.30379843  0.21610797     0.15200
C1426       C  0.41093005  0.26463813  0.18927127    -0.23700
H1427       H  0.42316270  0.35519311  0.28464045     0.05400
H1428       H  0.45925635  0.36044785  0.29604415     0.08700
H1429       H  0.42405909  0.33155662  0.31507713     0.08700
H1430       H  0.39827990  0.27041109  0.17233586     0.08700
H1431       H  0.39745982  0.23941214  0.19410725     0.08700
H1432       H  0.43307802  0.27048537  0.17890273     0.05400
C1433       C  0.43719879  0.12006959  0.26388837    -0.20400
C1434       C  0.45976703  0.15028072  0.27272925    -0.06900
C1435       C  0.45072630  0.16707606  0.29003077     0.13900
C1436       C  0.41952239  0.15381959  0.29720293    -0.20400
C1437       C  0.39660802  0.12389693  0.28789534    -0.06900
C1438       C  0.40574691  0.10658369  0.27124246     0.13900
C1439       C  0.38282925  0.07395726  0.26125119    -0.23800
H1440       H  0.44416821  0.10717979  0.25066637     0.15200
H1441       H  0.41305556  0.16717755  0.31031871     0.15200
C1442       C  0.47392111  0.19858195  0.30223875    -0.23700
H1443       H  0.39423881  0.06390459  0.24911692     0.05400
H1444       H  0.36536556  0.07358618  0.24547408     0.08700
H1445       H  0.37119344  0.05906698  0.28138301     0.08700
H1446       H  0.48543430  0.21525089  0.28337435     0.08700
H1447       H  0.49100529  0.19694405  0.31665831     0.08700
H1448       H  0.46298996  0.20772124  0.31655736     0.05400
C1449       C  0.85478811  0.35930089  0.11769112    -0.20400
C1450       C  0.83721760  0.33141150  0.10218870    -0.06900
C1451       C  0.81801718  0.30379043  0.11866375     0.13900
C1452       C  0.81591312  0.30512511  0.15026479    -0.20400
C1453       C  0.83418508  0.33293693  0.16606272    -0.06900
C1454       C  0.85503599  0.36011886  0.14946248     0.13900
C1455       C  0.88028396  0.38952212  0.16424919    -0.23800
H1456       H  0.87113245  0.37998968  0.10517797     0.15200
H1457       H  0.80272608  0.28376066  0.16296316     0.15200
C1458       C  0.80204853  0.27256095  0.10358941    -0.23700
H1459       H  0.87783140  0.40906306  0.15711416     0.05400
H1460       H  0.90320757  0.39457152  0.15689041     0.08700
H1461       H  0.88014044  0.38827499  0.18933487     0.08700
H1462       H  0.81951107  0.26851251  0.09408676     0.08700
H1463       H  0.78641860  0.27104023  0.08495955     0.08700
H1464       H  0.78799167  0.25351271  0.11995203     0.05400
C1465       C  0.86695409  0.41213331  0.27396608    -0.20400
C1466       C  0.85064720  0.39476452  0.24802113    -0.06900
C1467       C  0.83617736  0.40664047  0.22907311     0.13900
C1468       C  0.83417881  0.43133230  0.23914698    -0.20400
C1469       C  0.84719411  0.44609036  0.26688514    -0.06900
C1470       C  0.86734911  0.43881782  0.28217729     0.13900
C1471       C  0.89130741  0.45956701  0.30545932    -0.23800
H1472       H  0.88001382  0.40533814  0.28807262     0.15200
H1473       H  0.82267361  0.43955415  0.22451215     0.15200
C1474       C  0.82357177  0.39587851  0.19744988    -0.23700
H1475       H  0.91427770  0.46404498  0.29904221     0.05400
H1476       H  0.88534728  0.44819376  0.32816607     0.08700
H1477       H  0.89412165  0.48253709  0.30656903     0.08700
H1478       H  0.79805032  0.38491286  0.19710038     0.08700
H1479       H  0.82918966  0.37982301  0.18829999     0.08700
H1480       H  0.83392251  0.41600655  0.18158902     0.05400
C1481       C  0.90509985  0.31171559  0.23640653    -0.20400
C1482       C  0.88850805  0.31875440  0.25639015    -0.06900
C1483       C  0.88993841  0.31248921  0.28778546     0.13900
C1484       C  0.89998857  0.29256565  0.29661137    -0.20400
C1485       C  0.91105591  0.28069274  0.27532518    -0.06900
C1486       C  0.91582977  0.29244589  0.24520202     0.13900
C1487       C  0.93108878  0.28409070  0.22160848    -0.23800
H1488       H  0.90923581  0.32032747  0.21342361     0.15200
H1489       H  0.89879133  0.28590839  0.32032620     0.15200
C1490       C  0.88128187  0.32682069  0.31215542    -0.23700
H1491       H  0.93290465  0.29555726  0.19938126     0.05400
H1492       H  0.91730744  0.25876697  0.21775501     0.08700
H1493       H  0.95495252  0.29157468  0.22923267     0.08700
H1494       H  0.85685350  0.32012277  0.31003250     0.08700
H1495       H  0.89650014  0.35236531  0.31069909     0.08700
H1496       H  0.88446785  0.31971117  0.33525904     0.05400
C1497       C  0.67358466  0.19346952  0.37501484    -0.20400
C1498       C  0.66418508  0.16549884  0.36077994    -0.06900
C1499       C  0.64841535  0.13789956  0.37813917     0.13900
C1500       C  0.64931947  0.13977002  0.40982406    -0.20400
C1501       C  0.66427835  0.16844456  0.42464903    -0.06900
C1502       C  0.67332088  0.19534750  0.40681190     0.13900
C1503       C  0.68275795  0.22603877  0.42027226    -0.23800
H1504       H  0.68240566  0.21422137  0.36138211     0.15200
H1505       H  0.63930521  0.11856228  0.42311848     0.15200
C1506       C  0.63014969  0.10625676  0.36410549    -0.23700
H1507       H  0.69024697  0.24436512  0.40258260     0.05400
H1508       H  0.70223481  0.23387606  0.43644571     0.08700
H1509       H  0.66269001  0.22407290  0.43179365     0.08700
H1510       H  0.64119398  0.09307171  0.37005313     0.08700
H1511       H  0.62793784  0.10719948  0.33905825     0.08700
H1512       H  0.60625742  0.09357828  0.37308281     0.05400
C1513       C  0.60114345  0.15646484  0.29620866    -0.20400
C1514       C  0.61977440  0.15806519  0.27240659    -0.06900
C1515       C  0.61157218  0.16070267  0.24240821     0.13900
C1516       C  0.58559232  0.16277588  0.23700901    -0.20400
C1517       C  0.56648073  0.16161259  0.26068925    -0.06900
C1518       C  0.57483996  0.15827498  0.29096069     0.13900
C1519       C  0.55732618  0.15785490  0.31831007    -0.23800
H1520       H  0.60784875  0.15470109  0.31933556     0.15200
H1521       H  0.58254277  0.16799791  0.21396533     0.15200
C1522       C  0.63153254  0.16389682  0.21604661    -0.23700
H1523       H  0.56925299  0.15835405  0.33991336     0.05400
H1524       H  0.53417802  0.13627147  0.31881383     0.08700
H1525       H  0.55515552  0.17829515  0.31818404     0.08700
H1526       H  0.63179050  0.14249437  0.21374216     0.08700
H1527       H  0.65552726  0.18384617  0.21970352     0.08700
H1528       H  0.62279727  0.16774048  0.19414458     0.05400
C1529       C  0.69504262  0.11323643  0.24998206    -0.20400
C1530       C  0.70566850  0.13205724  0.27607168    -0.06900
C1531       C  0.73355971  0.13754936  0.29061121     0.13900
C1532       C  0.74951962  0.12492359  0.27842867    -0.20400
C1533       C  0.73961239  0.10761349  0.25180963    -0.06900
C1534       C  0.71174043  0.10125462  0.23759165     0.13900
C1535       C  0.69937540  0.08173398  0.20945207    -0.23800
H1536       H  0.67444529  0.10887014  0.23799795     0.15200
H1537       H  0.77083951  0.12958924  0.28934446     0.15200
C1538       C  0.74795934  0.15736519  0.31860307    -0.23700
H1539       H  0.67661896  0.07784878  0.20207918     0.05400
H1540       H  0.69628207  0.05882180  0.21400714     0.08700
H1541       H  0.71566740  0.09339700  0.19044822     0.08700
H1542       H  0.73360516  0.14588071  0.33879635     0.08700
H1543       H  0.75166647  0.18058003  0.31525811     0.08700
H1544       H  0.77105493  0.16117300  0.32423792     0.05400
C1545       C  0.72433636  0.24748253  0.25284982    -0.20400
C1546       C  0.72399878  0.23684565  0.28253465    -0.06900
C1547       C  0.74942535  0.25498426  0.30211125     0.13900
C1548       C  0.77585557  0.28141004  0.29058109    -0.20400
C1549       C  0.77818182  0.28938081  0.25952325    -0.06900
C1550       C  0.75118696  0.27347835  0.24094049     0.13900
C1551       C  0.75100676  0.28168684  0.20801938    -0.23800
H1552       H  0.70466796  0.23337646  0.23790369     0.15200
H1553       H  0.79598387  0.29424919  0.30529382     0.15200
C1554       C  0.74975913  0.24515666  0.33452944    -0.23700
H1555       H  0.72866569  0.26517468  0.19651297     0.05400
H1556       H  0.76943405  0.28105230  0.19616174     0.08700
H1557       H  0.75442334  0.30492595  0.20587080     0.08700
H1558       H  0.74554282  0.22151493  0.33549049     0.08700
H1559       H  0.73162143  0.24565942  0.34725417     0.08700
H1560       H  0.77228173  0.26092263  0.34610839     0.05400
C1561       C  0.69030007  0.14940582  0.78645386     0.86400
C1562       C  0.68379443  0.14779434  0.82053429    -0.53800
C1563       C  0.67403882  0.16662809  0.82959684     0.09300
C1564       C  0.67218556  0.18610547  0.80364134     0.20300
C1565       C  0.65914579  0.14204808  0.77170675    -0.54500
C1566       C  0.64984372  0.16139757  0.78098362     0.09400
C1567       C  0.71278803  0.18356979  0.77908300    -0.54100
C1568       C  0.70381160  0.20277318  0.78809680     0.10000
H1569       H  0.68481871  0.13157966  0.83592247     0.14500
H1570       H  0.66474053  0.20186248  0.81072157     0.00300
H1571       H  0.64448353  0.12231669  0.75745302     0.14800
H1572       H  0.73452357  0.19208163  0.76751738     0.14600
C1573       C  0.86459941  0.32677155  0.74351518     0.86400
C1574       C  0.85993438  0.32537165  0.70887733    -0.53800
C1575       C  0.83815008  0.33110928  0.69880467     0.09300
C1576       C  0.82180717  0.33714010  0.72447038     0.20300
C1577       C  0.87110592  0.35890027  0.75183591    -0.54500
C1578       C  0.84885150  0.36478223  0.74180445     0.09400
C1579       C  0.83203451  0.30362007  0.75508312    -0.54100
C1580       C  0.80967574  0.30918187  0.74630587     0.10000
H1581       H  0.87235112  0.32048265  0.69271539     0.14500
H1582       H  0.80319612  0.34070805  0.71695534     0.00300
H1583       H  0.89218274  0.37571241  0.76365712     0.14800
H1584       H  0.82698478  0.28398254  0.76944925     0.14600
O1585       O  0.76402581  0.09718631  0.71204862    -0.57900
C1586       C  0.81363980  0.08962876  0.65378530     0.74700
O1587       O  0.83853923  0.10374861  0.76421445    -0.59000
C1588       C  0.75985324  0.09767529  0.74022700     0.74700
C1589       C  0.77201829  0.01633002  0.72236117     0.77100
Cd1590     Cd  0.80380583  0.08304592  0.71833611     1.37500
O1591       O  0.79786772  0.09851984  0.66677085    -0.57900
O1592       O  0.75860669  0.03104293  0.72029425    -0.56700
C1593       C  0.85888220  0.12894738  0.75194793     0.77100
O1594       O  0.80129093  0.03237186  0.72476211    -0.59100
O1595       O  0.82708297  0.07992663  0.67080625    -0.57500
O1596       O  0.77569897  0.09126759  0.75776280    -0.57500
O1597       O  0.85527844  0.13187451  0.72383492    -0.56700
O1598       O  0.90734133  0.24203747  0.80976580    -0.57900
C1599       C  0.92704651  0.20166131  0.86941160     0.74700
O1600       O  0.88330180  0.15543440  0.79830418    -0.59000
C1601       C  0.91736720  0.25678426  0.78496293     0.74700
C1602       C  0.99501489  0.23694616  0.79622071     0.77100
Cd1603     Cd  0.92946632  0.20919184  0.80394492     1.37500
O1604       O  0.91263116  0.21207089  0.85519136    -0.57900
O1605       O  0.98259875  0.25219635  0.80094707    -0.56700
C1606       C  0.88408857  0.15451264  0.76969415     0.77100
O1607       O  0.97701781  0.20792316  0.79396493    -0.59100
O1608       O  0.94170536  0.19343119  0.85345434    -0.57500
O1609       O  0.93245825  0.24909490  0.76905235    -0.57500
O1610       O  0.90664828  0.17777050  0.75702930    -0.56700
O1611       O  0.35798195  0.12690260  0.81401395    -0.57900
C1612       C  0.30178570  0.09160680  0.88152451     0.74700
O1613       O  0.29988694  0.13867914  0.80740206    -0.59000
C1614       C  0.36386542  0.11166154  0.79613385     0.74700
C1615       C  0.26099188  0.02558200  0.80654727     0.77100
Cd1616     Cd  0.30170124  0.09137456  0.81548888     1.37500
O1617       O  0.32617361  0.10187781  0.86646433    -0.57900
O1618       O  0.29013207  0.03956936  0.80474996    -0.56700
C1619       C  0.28997658  0.13291262  0.78027276     0.77100
O1620       O  0.24982463  0.04214874  0.81084571    -0.59100
O1621       O  0.27709569  0.08243570  0.86632885    -0.57500
O1622       O  0.34057046  0.08667573  0.78657547    -0.57500
O1623       O  0.28322157  0.10707860  0.77009627    -0.56700
O1624       O  0.34963869  0.24147719  0.70435707    -0.57900
C1625       C  0.29103328  0.19150433  0.65663124     0.74700
O1626       O  0.29788305  0.18266733  0.77045898    -0.59000
C1627       C  0.35954070  0.25408158  0.72997783     0.74700
C1628       C  0.26021642  0.23329250  0.72656517     0.77100
Cd1629     Cd  0.29600728  0.20509113  0.72055394     1.37500
O1630       O  0.31551246  0.19998091  0.67195082    -0.57900
O1631       O  0.28901453  0.24839478  0.72226858    -0.56700
C1632       C  0.28874586  0.15598823  0.76088573     0.77100
O1633       O  0.24717145  0.20432748  0.72991523    -0.59100
O1634       O  0.26772503  0.18672033  0.67118892    -0.57500
O1635       O  0.33989108  0.24401635  0.75101543    -0.57500
O1636       O  0.28055770  0.15100468  0.73322402    -0.56700
C1637       C  0.54292408  0.17088594  0.75350315     0.86400
C1638       C  0.55631426  0.20470336  0.76295783    -0.53800
C1639       C  0.53766959  0.21563846  0.75618395     0.09300
C1640       C  0.50714065  0.19198658  0.74008964     0.20300
C1641       C  0.51043430  0.15204616  0.76803157    -0.54500
C1642       C  0.49193672  0.16351896  0.76139254     0.09400
C1643       C  0.53471086  0.17003264  0.71952617    -0.54100
C1644       C  0.51686099  0.18157705  0.71254858     0.10000
H1645       H  0.57906046  0.21893679  0.77340448     0.14500
H1646       H  0.49201360  0.20085173  0.73393955     0.00300
H1647       H  0.50217899  0.13103951  0.78121421     0.14800
H1648       H  0.54062580  0.15992553  0.70169564     0.14600
C1649       C  0.48470880  0.32804061  0.77330710     0.86400
C1650       C  0.48431399  0.32745087  0.80821615    -0.53800
C1651       C  0.51232044  0.33718090  0.82175247     0.09300
C1652       C  0.53818920  0.34481468  0.79915678     0.20300
C1653       C  0.51105286  0.36072378  0.76454402    -0.54500
C1654       C  0.53906478  0.36970287  0.77811150     0.09400
C1655       C  0.49685718  0.30706273  0.76642906    -0.54100
C1656       C  0.52504240  0.31612135  0.77887448     0.10000
H1657       H  0.46374581  0.31941568  0.82150211     0.14500
H1658       H  0.56075780  0.35142180  0.80981232     0.00300
H1659       H  0.50796246  0.37521761  0.74839620     0.14800
H1660       H  0.48392382  0.28600646  0.75327036     0.14600
C1661       C  0.68898811  0.53822245  0.73256259     0.86400
C1662       C  0.68129661  0.53105645  0.69869250    -0.59800
C1663       C  0.67393571  0.50228147  0.69052187     0.09300
C1664       C  0.67400196  0.48255803  0.71736154     0.20300
C1665       C  0.65926584  0.51175643  0.74808454    -0.54500
C1666       C  0.65123967  0.48256014  0.73966818     0.09400
C1667       C  0.71366134  0.53079951  0.74023719    -0.54100
C1668       C  0.70608959  0.50207442  0.73244527     0.10000
H1669       H  0.68093091  0.54696237  0.68246344     0.14500
H1670       H  0.66847238  0.45918714  0.71121273     0.00300
H1671       H  0.64465942  0.51533257  0.76266882     0.14800
H1672       H  0.73555979  0.54707557  0.75137538     0.14600
O1673       O  0.76541840  0.66737203  0.80766286    -0.57900
C1674       C  0.81547523  0.72207464  0.86737387     0.74700
O1675       O  0.83703332  0.73256981  0.75714085    -0.59000
C1676       C  0.75837996  0.66333661  0.77968734     0.74700
C1677       C  0.77457851  0.75735417  0.79886504     0.77100
Cd1678     Cd  0.80508159  0.72295106  0.80298949     1.37500
O1679       O  0.80292122  0.69773082  0.85163506    -0.57900
O1680       O  0.76148998  0.72924713  0.80636484    -0.56700
C1681       C  0.85849740  0.73154526  0.77087498     0.77100
O1682       O  0.80306357  0.77102142  0.79234461    -0.59100
O1683       O  0.82527708  0.74737723  0.85315027    -0.57500
O1684       O  0.77260062  0.68704647  0.76278616    -0.57500
O1685       O  0.85734345  0.73031754  0.79954292    -0.56700
O1686       O  0.90087996  0.65855263  0.71407361    -0.57900
C1687       C  0.91676183  0.71423673  0.65714560     0.74700
O1688       O  0.87978323  0.72461273  0.72608628    -0.59000
C1689       C  0.90314134  0.65174018  0.74139468     0.74700
C1690       C  0.98887700  0.74987346  0.73166865     0.77100
Cd1691     Cd  0.92219421  0.71414505  0.72279812     1.37500
O1692       O  0.89915047  0.69053942  0.67305210    -0.57900
O1693       O  0.97273714  0.72085410  0.73470511    -0.56700
C1694       C  0.88186240  0.72898204  0.75439955     0.77100
O1695       O  0.97426479  0.76316905  0.72617180    -0.59100
O1696       O  0.93584539  0.73856578  0.67147510    -0.57500
O1697       O  0.91353463  0.67372965  0.76002028    -0.57500
O1698       O  0.90367073  0.72854851  0.76801598    -0.56700
C1699       C  0.84033615  0.46985327  0.77750782     0.86400
C1700       C  0.80774957  0.46222999  0.76755979    -0.53800
C1701       C  0.80113931  0.48339431  0.77629097     0.09300
C1702       C  0.82714234  0.51017521  0.79468165     0.20300
C1703       C  0.86274007  0.50293092  0.76551018    -0.54500
C1704       C  0.85556540  0.52395131  0.77410251     0.09400
C1705       C  0.84002724  0.47294431  0.81213124    -0.54100
C1706       C  0.83429187  0.49476449  0.82101818     0.10000
H1707       H  0.79138916  0.44237183  0.75403356     0.14500
H1708       H  0.82135348  0.52715082  0.80199961     0.00300
H1709       H  0.88269237  0.50897604  0.75192252     0.14800
H1710       H  0.84406534  0.45934667  0.82856550     0.14600
C1711       C  0.69469666  0.15387361  0.99959558     0.86400
C1712       C  0.71936865  0.18905884  0.50376001    -0.53800
C1713       C  0.70835248  0.20715578  0.99444619     0.09300
C1714       C  0.67457368  0.18975336  0.98297826     0.20300
C1715       C  0.66756641  0.14832110  0.51744132    -0.54500
C1716       C  0.65584066  0.16669910  0.00861431     0.09400
C1717       C  0.68329301  0.15006545  0.96648360    -0.54100
C1718       C  0.67320999  0.16906361  0.95723233     0.10000
H1719       H  0.74263702  0.19841138  0.51296352     0.14500
H1720       H  0.66592083  0.20492089  0.97686474     0.00300
H1721       H  0.65618044  0.13117523  0.53523955     0.14800
H1722       H  0.68298955  0.13326430  0.95159592     0.14600
C1723       C  0.87060941  0.32181298  0.52923426     0.86400
C1724       C  0.83794354  0.30321734  0.51540989    -0.53800
C1725       C  0.81891489  0.31370381  0.52139384     0.09300
C1726       C  0.83430178  0.34169931  0.54267608     0.20300
C1727       C  0.88336827  0.35572097  0.51988324    -0.54500
C1728       C  0.86422943  0.36598086  0.52656958     0.09400
C1729       C  0.86441731  0.32106698  0.56343804    -0.54100
C1730       C  0.84529211  0.33099015  0.57027611     0.10000
H1731       H  0.83022977  0.28243443  0.50237340     0.14500
H1732       H  0.81956949  0.35070592  0.54842293     0.00300
H1733       H  0.90464571  0.37084871  0.00838322     0.14800
H1734       H  0.87366873  0.31359097  0.58153999     0.14600
O1735       O  0.79704529  0.09388570  0.60405486    -0.57900
C1736       C  0.76735379  0.09979826  0.53786318     0.74700
O1737       O  0.86367254  0.12416909  0.54917433    -0.59000
C1738       C  0.81435596  0.08865400  0.62051865     0.74700
C1739       C  0.78106138  0.01476962  0.54384017     0.77100
Cd1740     Cd  0.80918454  0.08035369  0.55525770     1.37500
O1741       O  0.75824634  0.07564997  0.55377071    -0.57900
O1742       O  0.77023352  0.03002835  0.53256616    -0.56700
C1743       C  0.86375122  0.12329437  0.52046773     0.77100
O1744       O  0.80647804  0.03006265  0.55827742    -0.59100
O1745       O  0.79120176  0.10862393  0.02476051    -0.57500
O1746       O  0.83075633  0.08091591  0.60690949    -0.57500
O1747       O  0.83986909  0.10099569  0.50796491    -0.56700
O1748       O  0.91562177  0.21181622  0.91841091    -0.57900
C1749       C  0.91954672  0.24784401  0.48939687     0.74700
O1750       O  0.91299335  0.17057611  0.51491376    -0.59000
C1751       C  0.92766442  0.20048951  0.90280648     0.74700
C1752       C  0.00035387  0.23436195  0.97168774     0.77100
Cd1753     Cd  0.93369834  0.20442566  0.96830193     1.37500
O1754       O  0.90994340  0.23563618  0.96357977    -0.57900
O1755       O  0.98654782  0.24871549  0.97265821    -0.56700
C1756       C  0.88917028  0.14958387  0.00353503     0.77100
O1757       O  0.98340671  0.20455516  0.46968249    -0.59100
O1758       O  0.93614161  0.24068198  0.50469561    -0.57500
O1759       O  0.94108248  0.18918715  0.91741106    -0.57500
O1760       O  0.88784955  0.15040903  0.97484973    -0.56700
O1761       O  0.31546070  0.19901852  0.60907682    -0.57900
C1762       C  0.35464817  0.24646255  0.54186814     0.74700
O1763       O  0.28531484  0.14376557  0.55514295    -0.59000
C1764       C  0.29074449  0.18991878  0.62335427     0.74700
C1765       C  0.25833862  0.22536624  0.54882269     0.77100
Cd1766     Cd  0.29372284  0.19665269  0.55830815     1.37500
O1767       O  0.34875257  0.23506242  0.56847314    -0.57900
O1768       O  0.28718334  0.23979351  0.55337660    -0.56700
C1769       C  0.28816107  0.14423245  0.52666790     0.77100
O1770       O  0.24444151  0.19618572  0.54660716    -0.59100
O1771       O  0.33150324  0.23543962  0.02325709    -0.57500
O1772       O  0.26652330  0.18154436  0.60750860    -0.57500
O1773       O  0.29022469  0.16702983  0.51263325    -0.56700
O1774       O  0.36111181  0.10230223  0.97560769    -0.57900
C1775       C  0.30228346  0.08923515  0.91482853     0.74700
O1776       O  0.25574534  0.02825627  0.49113729    -0.59000
C1777       C  0.36610973  0.09732061  0.50275620     0.74700
C1778       C  0.29056854  0.12143841  0.01000215     0.77100
Cd1779     Cd  0.30448873  0.08007119  0.97952338     1.37500
O1780       O  0.32755233  0.10015062  0.92949506    -0.57900
O1781       O  0.29854297  0.12502370  0.98253554    -0.56700
C1782       C  0.26700511  0.01288236  0.98269890     0.77100
O1783       O  0.29012113  0.09836881  0.52458389    -0.59100
O1784       O  0.27769165  0.07511596  0.93014318    -0.57500
O1785       O  0.34247740  0.08467831  0.51938323    -0.57500
O1786       O  0.29450620  0.02805977  0.97347044    -0.56700
C1787       C  0.54872347  0.16884061  0.54534219     0.86400
C1788       C  0.51559766  0.14198088  0.53600316    -0.53800
C1789       C  0.49269796  0.14750822  0.54203385     0.09300
C1790       C  0.50481179  0.17874117  0.55758943     0.20300
C1791       C  0.55175674  0.19728132  0.52909445    -0.54500
C1792       C  0.52918858  0.20261566  0.53579245     0.09400
C1793       C  0.54560392  0.17291465  0.57930851    -0.54100
C1794       C  0.52299576  0.17843979  0.58567049     0.10000
H1795       H  0.50934966  0.12144654  0.02664262     0.14500
H1796       H  0.48666969  0.18363168  0.56285402     0.00300
H1797       H  0.57038365  0.21308068  0.01443760     0.14800
H1798       H  0.56032557  0.17183613  0.59688068     0.14600
C1799       C  0.47860574  0.31991332  0.99929198     0.86400
C1800       C  0.48639777  0.29440644  0.50628265    -0.53800
C1801       C  0.51413324  0.30224652  0.99630961     0.09300
C1802       C  0.53102894  0.33208795  0.97699150     0.20300
C1803       C  0.50702480  0.34952416  0.51051957    -0.54500
C1804       C  0.53449055  0.35775993  0.99803143     0.09400
C1805       C  0.48004263  0.32209741  0.96417732    -0.54100
C1806       C  0.50739550  0.32845997  0.95252319     0.10000
H1807       H  0.47136940  0.27333895  0.51908022     0.14500
H1808       H  0.55276821  0.33675294  0.96696710     0.00300
H1809       H  0.50478330  0.36318684  0.52737490     0.14800
H1810       H  0.46144229  0.31850240  0.94908861     0.14600
C1811       C  0.69244361  0.52432600  0.51527177     0.86400
C1812       C  0.71866587  0.51846780  0.51275250    -0.53800
C1813       C  0.71276992  0.49130108  0.52511271     0.09300
C1814       C  0.68049865  0.47183488  0.53954299     0.20300
C1815       C  0.66371395  0.49574446  0.50177250    -0.54500
C1816       C  0.65703551  0.46823717  0.51464127     0.09400
C1817       C  0.68649485  0.52119867  0.54982779    -0.54100
C1818       C  0.67995576  0.49375606  0.56248820     0.10000
H1819       H  0.74094559  0.53521311  0.50300155     0.14500
H1820       H  0.67517371  0.44971515  0.54983162     0.00300
H1821       H  0.64898403  0.49742335  0.98501764     0.14800
H1822       H  0.68826723  0.53909776  0.56402885     0.14600
O1823       O  0.77484565  0.65918309  0.95266807    -0.57900
C1824       C  0.81606304  0.72047961  0.90068728     0.74700
O1825       O  0.80856615  0.76575384  0.46939622    -0.59000
C1826       C  0.75772944  0.65154596  0.47578054     0.74700
C1827       C  0.85611858  0.72086561  0.00542756     0.77100
Cd1828     Cd  0.80663503  0.71473379  0.96545230     1.37500
O1829       O  0.80510310  0.69489790  0.91452744    -0.57900
O1830       O  0.86053711  0.72800696  0.97755726    -0.56700
C1831       C  0.77959806  0.75171059  0.97252993     0.77100
O1832       O  0.83087317  0.71542431  0.51485045    -0.59100
O1833       O  0.82525561  0.74407282  0.91693321    -0.57500
O1834       O  0.76213996  0.67328541  0.49271151    -0.57500
O1835       O  0.76406180  0.72257176  0.97170189    -0.56700
O1836       O  0.90712743  0.65400137  0.56826854    -0.57900
C1837       C  0.91631685  0.71291819  0.62376142     0.74700
O1838       O  0.97220172  0.75838523  0.55166200    -0.59000
C1839       C  0.90487827  0.64654194  0.54068836     0.74700
C1840       C  0.87945807  0.71986694  0.52345727     0.77100
Cd1841     Cd  0.92116062  0.70814966  0.55888262     1.37500
O1842       O  0.89937774  0.68777046  0.60977821    -0.57900
O1843       O  0.90553981  0.72710403  0.51346671    -0.56700
C1844       C  0.98767908  0.74559237  0.55279819     0.77100
O1845       O  0.87338510  0.70903406  0.55021747    -0.59100
O1846       O  0.93399647  0.73642017  0.60765005    -0.57500
O1847       O  0.90997528  0.66737557  0.02175709    -0.57500
O1848       O  0.97241698  0.71646150  0.55464741    -0.56700
C1849       C  0.85698564  0.47240971  0.49260589     0.86400
C1850       C  0.87819300  0.50588788  0.50432775    -0.53800
C1851       C  0.86723681  0.52482971  0.99536917     0.09300
C1852       C  0.83683831  0.50913950  0.97703610     0.20300
C1853       C  0.82454264  0.46155327  0.50446793    -0.54500
C1854       C  0.81432819  0.48097170  0.99629354     0.09400
C1855       C  0.85348579  0.47693730  0.95637623    -0.54100
C1856       C  0.84298635  0.49586382  0.94921637     0.10000
H1857       H  0.89934193  0.51377517  0.51740558     0.14500
H1858       H  0.82830496  0.52465731  0.97157494     0.00300
H1859       H  0.81085347  0.44069774  0.51799463     0.14800
H1860       H  0.85984429  0.46758352  0.93820490     0.14600
O1861       O  0.11982176  0.31157284  0.91008132    -0.57900
C1862       C  0.11718200  0.35161790  0.47486961     0.74700
O1863       O  0.04963010  0.23854558  0.46568826    -0.59000
C1864       C  0.10379507  0.28667794  0.89554282     0.74700
C1865       C  0.14259172  0.27804481  0.99759307     0.77100
Cd1866     Cd  0.10074389  0.28922897  0.96069723     1.37500
O1867       O  0.12720234  0.34619283  0.95105538    -0.57900
O1868       O  0.12147849  0.28018137  0.00930783    -0.56700
C1869       C  0.03426897  0.25163805  0.96942171     0.77100
O1870       O  0.14269585  0.27772899  0.46951146    -0.59100
O1871       O  0.10031796  0.32836436  0.49154899    -0.57500
O1872       O  0.08755279  0.26227131  0.91112418    -0.57500
O1873       O  0.04948220  0.28075933  0.96767879    -0.56700
O1874       O  0.25851565  0.33654617  0.56138393    -0.57900
C1875       C  0.20832695  0.27941388  0.61752078     0.74700
O1876       O  0.18643549  0.27283494  0.50526077    -0.59000
C1877       C  0.26620678  0.34196004  0.53379143     0.74700
C1878       C  0.24285285  0.24272662  0.54801974     0.77100
Cd1879     Cd  0.21747065  0.28126826  0.55303524     1.37500
O1880       O  0.22009373  0.30426833  0.60221387    -0.57900
O1881       O  0.25883533  0.27165250  0.55138296    -0.56700
C1882       C  0.16542118  0.27517187  0.51697992     0.77100
O1883       O  0.21379315  0.23036284  0.54553149    -0.59100
O1884       O  0.19908574  0.25480435  0.60291058    -0.57500
O1885       O  0.25305211  0.31966377  0.01472865    -0.57500
O1886       O  0.16662494  0.27748634  0.54558368    -0.56700
C1887       C  0.16736837  0.53000240  0.51031148     0.86400
C1888       C  0.20051506  0.53967686  0.50159294    -0.53800
C1889       C  0.20883653  0.51963651  0.51109180     0.09300
C1890       C  0.18354379  0.49127055  0.52813891     0.20300
C1891       C  0.14704155  0.49703491  0.49648154    -0.54500
C1892       C  0.15591910  0.47702538  0.50577128     0.09400
C1893       C  0.16559780  0.52380169  0.54475318    -0.54100
C1894       C  0.17376727  0.50357048  0.55411130     0.10000
H1895       H  0.21580769  0.55946064  0.98826418     0.14500
H1896       H  0.19077502  0.47516764  0.53576632     0.00300
H1897       H  0.12774376  0.48917343  0.98010650     0.14800
H1898       H  0.15800514  0.53439862  0.56057367     0.14600
C1899       C  0.32635117  0.46956522  0.98868547     0.86400
C1900       C  0.33380503  0.47484893  0.95488652    -0.53800
C1901       C  0.34044287  0.50268496  0.94389977     0.09300
C1902       C  0.34033905  0.52380036  0.96794845     0.20300
C1903       C  0.35592716  0.49651885  0.50420835    -0.54500
C1904       C  0.36366377  0.52580626  0.99227701     0.09400
C1905       C  0.30157848  0.47651259  0.49499578    -0.54100
C1906       C  0.30846974  0.50489448  0.98305988     0.10000
H1907       H  0.33432309  0.45803063  0.94073036     0.14500
H1908       H  0.34559331  0.54603715  0.95776185     0.00300
H1909       H  0.37052591  0.49398290  0.52064632     0.14800
H1910       H  0.28004106  0.46090177  0.50662642     0.14600
O1911       O  0.09722958  0.74988032  0.56586655    -0.57900
C1912       C  0.09290968  0.80101167  0.62700599     0.74700
O1913       O  0.14114686  0.83697647  0.55602900    -0.59000
C1914       C  0.09447600  0.74445837  0.53762587     0.74700
C1915       C  0.02163174  0.76285953  0.55390181     0.77100
Cd1916     Cd  0.08753248  0.79234007  0.56209799     1.37500
O1917       O  0.10563354  0.78917562  0.61335700    -0.57900
O1918       O  0.03514318  0.74851553  0.55904486    -0.56700
C1919       C  0.13663672  0.84617581  0.53074525     0.77100
O1920       O  0.03871241  0.79205821  0.55127925    -0.59100
O1921       O  0.07898076  0.81061510  0.61058974    -0.57500
O1922       O  0.09279705  0.76404316  0.02153143    -0.57500
O1923       O  0.10894921  0.83226259  0.52093607    -0.56700
O1924       O  0.23848219  0.88073445  0.96659666    -0.57900
C1925       C  0.20444684  0.91081747  0.91055620     0.74700
O1926       O  0.18990252  0.88533262  0.52354395    -0.59000
C1927       C  0.25824822  0.89188382  0.48725510     0.74700
C1928       C  0.24922960  0.97889258  0.98225058     0.77100
Cd1929     Cd  0.21609791  0.91241379  0.97530366     1.37500
O1930       O  0.21539011  0.89601915  0.92288538    -0.57900
O1931       O  0.26155994  0.96477280  0.97297147    -0.56700
C1932       C  0.16278615  0.87034586  0.01252178     0.77100
O1933       O  0.22084139  0.96195517  0.49062064    -0.59100
O1934       O  0.19639058  0.92441411  0.92823584    -0.57500
O1935       O  0.25889791  0.91276663  0.50288454    -0.57500
O1936       O  0.15984336  0.87449048  0.98456672    -0.56700
C1937       C  0.37384682  0.83069939  0.52890915     0.86400
C1938       C  0.34590037  0.79800096  0.52224433    -0.53800
C1939       C  0.31833076  0.79228448  0.53274722     0.09300
C1940       C  0.32119446  0.81998984  0.54901376     0.20300
C1941       C  0.36371825  0.85206999  0.51461083    -0.54500
C1942       C  0.33606444  0.84621275  0.52535051     0.09400
C1943       C  0.37370079  0.83536570  0.56315957    -0.54100
C1944       C  0.34614310  0.82881070  0.57379128     0.10000
H1945       H  0.34814487  0.78036356  0.01020213     0.14500
H1946       H  0.29896199  0.81583157  0.55753033     0.00300
H1947       H  0.37516968  0.86787200  0.99717906     0.14800
H1948       H  0.39357362  0.84231655  0.57807308     0.14600
C1949       C  0.14250423  0.67525011  0.98823877     0.86400
C1950       C  0.14562770  0.67540337  0.95332063    -0.53800
C1951       C  0.16872940  0.67150200  0.94385151     0.09300
C1952       C  0.18623611  0.66710838  0.97045363     0.20300
C1953       C  0.13719652  0.64372078  0.49827816    -0.54500
C1954       C  0.16079901  0.63990903  0.98906019     0.09400
C1955       C  0.17454471  0.69966497  0.49967041    -0.54100
C1956       C  0.19788167  0.69554416  0.99030597     0.10000
H1957       H  0.13078401  0.67742668  0.93688849     0.14500
H1958       H  0.20504344  0.66387783  0.96417011     0.00300
H1959       H  0.11707711  0.62589983  0.51037145     0.14800
H1960       H  0.17925391  0.71913972  0.51354199     0.14600
C1961       C  0.47974669  0.82804347  0.98588145     0.86400
C1962       C  0.46485023  0.79322758  0.48716688    -0.53800
C1963       C  0.48279791  0.78279841  0.97746243     0.09300
C1964       C  0.51399023  0.80888177  0.96431664     0.20300
C1965       C  0.51174946  0.84252653  0.50076131    -0.54500
C1966       C  0.53004021  0.83222575  0.99042234     0.09400
C1967       C  0.48637397  0.83467310  0.95194530    -0.54100
C1968       C  0.50507855  0.82563850  0.94076136     0.10000
H1969       H  0.44295352  0.77739636  0.49808393     0.14500
H1970       H  0.52824567  0.80080876  0.95444101     0.00300
H1971       H  0.51953465  0.85934764  0.51883037     0.14800
H1972       H  0.47573583  0.84369923  0.93714054     0.14600
O1973       O  0.66696055  0.87385303  0.54549196    -0.57900
C1974       C  0.71808879  0.91082984  0.61517002     0.74700
O1975       O  0.73834156  0.87585994  0.54486332    -0.59000
C1976       C  0.65910666  0.88948927  0.52940431     0.74700
C1977       C  0.76340620  0.98081335  0.54256665     0.77100
Cd1978     Cd  0.72250718  0.91432486  0.54961286     1.37500
O1979       O  0.69686674  0.90900002  0.59821140    -0.57900
O1980       O  0.73709566  0.96589493  0.52974163    -0.56700
C1981       C  0.73659422  0.87481800  0.51618531     0.77100
O1982       O  0.77239169  0.96494701  0.55626402    -0.59100
O1983       O  0.74093686  0.91298582  0.60203298    -0.57500
O1984       O  0.68107460  0.91657075  0.02253340    -0.57500
O1985       O  0.73146200  0.89388934  0.50310014    -0.56700
O1986       O  0.67446301  0.75018638  0.96007169    -0.57900
C1987       C  0.72512896  0.80596559  0.90197588     0.74700
O1988       O  0.74363125  0.83221911  0.51128827    -0.59000
C1989       C  0.66668097  0.74985688  0.48670456     0.74700
C1990       C  0.76361170  0.76853693  0.97294503     0.77100
Cd1991     Cd  0.72727685  0.79655078  0.96650283     1.37500
O1992       O  0.70095902  0.79306028  0.91785427    -0.57900
O1993       O  0.73455427  0.75377236  0.97504518    -0.56700
C1994       C  0.73787915  0.85035180  0.99939044     0.77100
O1995       O  0.77697848  0.79828899  0.46806331    -0.59100
O1996       O  0.75065798  0.81626396  0.91604650    -0.57500
O1997       O  0.68749418  0.76953407  0.50442715    -0.57500
O1998       O  0.72923948  0.84551599  0.97186257    -0.56700
C1999       C  0.53805122  0.67727556  0.52380288     0.86400
C2000       C  0.53172980  0.66942838  0.55765717    -0.53800
C2001       C  0.50224365  0.65925783  0.56602627     0.09300
C2002       C  0.48134214  0.65742749  0.53954247     0.20300
C2003       C  0.51327811  0.64684001  0.50781152    -0.54500
C2004       C  0.48346578  0.63637567  0.51651847     0.09400
C2005       C  0.52745528  0.69941903  0.51598505    -0.54100
C2006       C  0.49825627  0.68937749  0.52426039     0.10000
H2007       H  0.54986053  0.67377291  0.57396093     0.14500
H2008       H  0.45749601  0.64962162  0.54663558     0.00300
H2009       H  0.51821430  0.63514920  0.99128989     0.14800
H2010       H  0.54296133  0.72159936  0.00602907     0.14600
O2011       O  0.66178231  0.76311876  0.81215704    -0.57900
C2012       C  0.72325197  0.80664318  0.86870520     0.74700
O2013       O  0.76773017  0.80049471  0.79179422    -0.59000
C2014       C  0.65566901  0.74923972  0.78705293     0.74700
C2015       C  0.72453953  0.84982118  0.76835025     0.77100
Cd2016     Cd  0.71801323  0.79803762  0.80400921     1.37500
O2017       O  0.69736870  0.79385011  0.85490780    -0.57900
O2018       O  0.72446735  0.82758326  0.75625211    -0.56700
C2019       C  0.75668584  0.77237762  0.79885368     0.77100
O2020       O  0.72435312  0.84977467  0.79706092    -0.59100
O2021       O  0.74712975  0.81803508  0.85243801    -0.57500
O2022       O  0.67856968  0.75788481  0.77004904    -0.57500
O2023       O  0.72872802  0.75707406  0.80681090    -0.56700
O2024       O  0.65650834  0.88652148  0.70544715    -0.57900
C2025       C  0.71653794  0.91142887  0.64836571     0.74700
O2026       O  0.76520097  0.96583863  0.72147055    -0.59000
C2027       C  0.65049746  0.89772683  0.72762135     0.74700
C2028       C  0.72289460  0.87328961  0.74990383     0.77100
Cd2029     Cd  0.71338813  0.91594626  0.71334103     1.37500
O2030       O  0.69231729  0.90628109  0.66115973    -0.57900
O2031       O  0.71846189  0.87056805  0.72149399    -0.56700
C2032       C  0.75361389  0.98241309  0.72071567     0.77100
O2033       O  0.72414482  0.89630416  0.76162567    -0.59100
O2034       O  0.73945446  0.91801488  0.66553814    -0.57500
O2035       O  0.67359025  0.91667532  0.74378056    -0.57500
O2036       O  0.72461784  0.96835201  0.71733297    -0.56700
C2037       C  0.52975105  0.68067094  0.74180300     0.86400
C2038       C  0.52166037  0.70490826  0.74767381    -0.53800
C2039       C  0.49457845  0.69892784  0.73483331     0.09300
C2040       C  0.47721182  0.66852163  0.71699037     0.20300
C2041       C  0.50145385  0.64973599  0.75206671    -0.54500
C2042       C  0.47400547  0.64326482  0.73897153     0.09400
C2043       C  0.52838192  0.67858481  0.70674472    -0.54100
C2044       C  0.50078178  0.67164340  0.69380951     0.10000
H2045       H  0.53696487  0.72614436  0.75995248     0.14500
H2046       H  0.45477840  0.66341503  0.70750261     0.00300
H2047       H  0.50306058  0.63412943  0.76797374     0.14800
H2048       H  0.54705143  0.68198317  0.69265167     0.14600
C2049       C  0.47270014  0.84108020  0.77114333     0.86400
C2050       C  0.50537158  0.86225611  0.75793370    -0.53800
C2051       C  0.52533168  0.85283162  0.76473646     0.09300
C2052       C  0.51123192  0.82327703  0.78416218     0.20300
C2053       C  0.46173509  0.80822007  0.76004468    -0.54500
C2054       C  0.48213829  0.79920506  0.76631344     0.09400
C2055       C  0.47856289  0.83904358  0.80545772    -0.54100
C2056       C  0.49885747  0.83016522  0.81227548     0.10000
H2057       H  0.51226540  0.88304192  0.74473824     0.14500
H2058       H  0.52795186  0.81617467  0.78931070     0.00300
H2059       H  0.44030423  0.79384689  0.74746488     0.14800
H2060       H  0.46746655  0.84318507  0.82372380     0.14600
C2061       C  0.16723782  0.63422723  0.76853321     0.86400
C2062       C  0.16577849  0.63730695  0.80311058    -0.53800
C2063       C  0.17834909  0.66676832  0.81329207     0.09300
C2064       C  0.18982782  0.69075224  0.78725649     0.20300
C2065       C  0.14957992  0.64922578  0.75609231    -0.54500
C2066       C  0.16186253  0.67909996  0.76540295     0.09400
C2067       C  0.20153118  0.65708847  0.76087206    -0.54100
C2068       C  0.21304113  0.68654941  0.77000772     0.10000
H2069       H  0.15421748  0.61815380  0.81888488     0.14500
H2070       H  0.19999233  0.71483272  0.79455907     0.00300
H2071       H  0.12920831  0.63728912  0.74140862     0.14800
H2072       H  0.21550641  0.65044048  0.74901147     0.14600
C2073       C  0.32107555  0.85612055  0.74766531     0.86400
C2074       C  0.30476122  0.82321686  0.76016110    -0.53800
C2075       C  0.31548885  0.80594050  0.74974644     0.09300
C2076       C  0.34303646  0.82366214  0.72821778     0.20300
C2077       C  0.35573447  0.86973893  0.75633696    -0.54500
C2078       C  0.36702199  0.85218484  0.74645408     0.09400
C2079       C  0.32062891  0.85350819  0.71312024    -0.54100
C2080       C  0.33284828  0.83747152  0.70259941     0.10000
H2081       H  0.28518263  0.81381581  0.77533476     0.14500
H2082       H  0.35177771  0.80928765  0.72024059     0.00300
H2083       H  0.37032272  0.89144102  0.76775401     0.14800
H2084       H  0.31274437  0.86506738  0.69812199     0.14600
O2085       O  0.21475223  0.90273226  0.86037385    -0.57900
C2086       C  0.25175100  0.90889454  0.79101059     0.74700
O2087       O  0.17358831  0.90511291  0.76733333    -0.59000
C2088       C  0.20342599  0.91377870  0.87734736     0.74700
C2089       C  0.24191105  0.99163136  0.80570022     0.77100
Cd2090     Cd  0.20955773  0.92498480  0.81253836     1.37500
O2091       O  0.25303265  0.91694996  0.81824654    -0.57900
O2092       O  0.25443573  0.97636882  0.80185876    -0.56700
C2093       C  0.15419176  0.87936064  0.77939221     0.77100
O2094       O  0.21305230  0.97612195  0.81057288    -0.59100
O2095       O  0.23173306  0.90930117  0.77387538    -0.57500
O2096       O  0.19306707  0.92888270  0.86435437    -0.57500
O2097       O  0.15819772  0.87639173  0.80737653    -0.56700
O2098       O  0.12387348  0.77768917  0.72192433    -0.57900
C2099       C  0.09309781  0.80190426  0.66033841     0.74700
O2100       O  0.03970604  0.79562633  0.72886893    -0.59000
C2101       C  0.11085767  0.75590676  0.74121395     0.74700
C2102       C  0.13016542  0.85304797  0.76145156     0.77100
Cd2103     Cd  0.08945211  0.79736971  0.72612387     1.37500
O2104       O  0.10622370  0.79117794  0.67619277    -0.57900
O2105       O  0.11067452  0.82761752  0.77385290    -0.56700
C2106       C  0.02287742  0.76663557  0.73246039     0.77100
O2107       O  0.12959453  0.85364597  0.73275219    -0.59100
O2108       O  0.07913752  0.81199609  0.67469971    -0.57500
O2109       O  0.08782321  0.75341982  0.75442502    -0.57500
O2110       O  0.03678660  0.75235005  0.73504933    -0.56700
O2111       O  0.11691252  0.31168445  0.84711628    -0.57900
C2112       C  0.10837746  0.34713946  0.77315801     0.74700
O2113       O  0.14260991  0.28647002  0.79337506    -0.59000
C2114       C  0.10276159  0.28667235  0.86221889     0.74700
C2115       C  0.02878495  0.25292677  0.79469234     0.77100
Cd2116     Cd  0.09540740  0.28832947  0.79737601     1.37500
O2117       O  0.11494977  0.34386705  0.80028797    -0.57900
O2118       O  0.04506231  0.28191212  0.79719378    -0.56700
C2119       C  0.13760796  0.27611790  0.76666720     0.77100
O2120       O  0.04315843  0.23914417  0.79195779    -0.59100
O2121       O  0.09743895  0.32349976  0.75655323    -0.57500
O2122       O  0.08648181  0.26202277  0.84726712    -0.57500
O2123       O  0.11214024  0.26947484  0.75440169    -0.56700
O2124       O  0.24166798  0.33939925  0.70737049    -0.57900
C2125       C  0.20730565  0.27972259  0.65074883     0.74700
O2126       O  0.21431479  0.23553568  0.72898235    -0.59000
C2127       C  0.26034584  0.34605637  0.72956426     0.74700
C2128       C  0.16141747  0.27448276  0.75013199     0.77100
Cd2129     Cd  0.21357801  0.28326652  0.71578393     1.37500
O2130       O  0.21832504  0.30486648  0.66480472    -0.57900
O2131       O  0.15893049  0.26889963  0.72202302    -0.56700
C2132       C  0.24334592  0.24919010  0.72559855     0.77100
O2133       O  0.18657002  0.28092634  0.76287122    -0.59100
O2134       O  0.19699403  0.25541104  0.66677201    -0.57500
O2135       O  0.25702021  0.32345307  0.74511460    -0.57500
O2136       O  0.25766359  0.27772376  0.71958238    -0.56700
C2137       C  0.32556277  0.47199702  0.76813700     0.86400
C2138       C  0.29979870  0.47794967  0.76074487    -0.53800
C2139       C  0.30504368  0.50521079  0.77094161     0.09300
C2140       C  0.33521824  0.52397739  0.78955640     0.20300
C2141       C  0.35558066  0.50089299  0.75710978    -0.54500
C2142       C  0.36091380  0.52804809  0.76870515     0.09400
C2143       C  0.32798642  0.47426039  0.80316446    -0.54100
C2144       C  0.33310472  0.50132925  0.81439546     0.10000
H2145       H  0.27841911  0.46144238  0.74897530     0.14500
H2146       H  0.33894006  0.54599130  0.79803435     0.00300
H2147       H  0.37164914  0.49991115  0.74216818     0.14800
H2148       H  0.32518408  0.45624881  0.81858123     0.14600
C2149       C  0.16044444  0.52238892  0.72573477     0.86400
C2150       C  0.13721031  0.48843451  0.73523883    -0.53800
C2151       C  0.14561435  0.46814275  0.72712951     0.09300
C2152       C  0.17658630  0.48366094  0.71022502     0.20300
C2153       C  0.19204343  0.53006906  0.73866793    -0.54500
C2154       C  0.20019954  0.50974701  0.73118067     0.09400
C2155       C  0.16312155  0.51993845  0.69114740    -0.54100
C2156       C  0.17156564  0.49991328  0.68304279     0.10000
H2157       H  0.11577728  0.48085974  0.74684137     0.14500
H2158       H  0.18408632  0.46770569  0.70426092     0.00300
H2159       H  0.20648824  0.54965576  0.75335021     0.14800
H2160       H  0.15720982  0.53103000  0.67358333     0.14600
C2161       C  0.25256959  0.49335666  0.77938458    -0.20400
C2162       C  0.28125650  0.51290722  0.76588526    -0.06900
C2163       C  0.28413836  0.53384756  0.74292769     0.13900
C2164       C  0.25750657  0.53323439  0.73254708    -0.20400
C2165       C  0.22821741  0.51160713  0.74428492    -0.06900
C2166       C  0.22604648  0.49230941  0.76877571     0.13900
C2167       C  0.19564687  0.46924665  0.78279383    -0.23800
H2168       H  0.25055202  0.47713579  0.79683715     0.15200
H2169       H  0.25937350  0.54884970  0.71454357     0.15200
C2170       C  0.31496301  0.55567983  0.72858791    -0.23700
H2171       H  0.19851280  0.45799891  0.80334767     0.05400
H2172       H  0.18192745  0.45093049  0.76597639     0.08700
H2173       H  0.18336893  0.48072141  0.78949809     0.08700
H2174       H  0.32376507  0.54238593  0.71791732     0.08700
H2175       H  0.33182178  0.57101338  0.74624062     0.08700
H2176       H  0.31322335  0.57039873  0.71079200     0.05400
C2177       C  0.28957699  0.40193097  0.71602398    -0.20400
C2178       C  0.28399924  0.37862626  0.73717281    -0.06900
C2179       C  0.30030779  0.38728706  0.76530185     0.13900
C2180       C  0.31797488  0.41860382  0.77296609    -0.20400
C2181       C  0.31826819  0.44142790  0.75431881    -0.06900
C2182       C  0.30726530  0.43331924  0.72385037     0.13900
C2183       C  0.31391631  0.45719336  0.69935930    -0.23800
H2184       H  0.27920745  0.39555240  0.69348175     0.15200
H2185       H  0.33050166  0.42469862  0.79428328     0.15200
C2186       C  0.29825952  0.36398539  0.78827095    -0.23700
H2187       H  0.30488113  0.44626128  0.67683707     0.05400
H2188       H  0.33928614  0.47329058  0.69728602     0.08700
H2189       H  0.30317494  0.47058494  0.70391187     0.08700
H2190       H  0.30641786  0.34992461  0.77809035     0.08700
H2191       H  0.27402696  0.34883088  0.79596958     0.08700
H2192       H  0.31283232  0.37522461  0.80879180     0.05400
C2193       C  0.11604385  0.38239680  0.72972099    -0.20400
C2194       C  0.11335839  0.37691852  0.76125232    -0.06900
C2195       C  0.11486086  0.39971443  0.78037632     0.13900
C2196       C  0.12189830  0.42817539  0.76778998    -0.20400
C2197       C  0.12876974  0.43504033  0.73688178    -0.06900
C2198       C  0.12355870  0.41107180  0.71725164     0.13900
C2199       C  0.12426356  0.41485768  0.68314352    -0.23800
H2200       H  0.11315287  0.36445393  0.71472504     0.15200
H2201       H  0.12476340  0.44615858  0.78270278     0.15200
C2202       C  0.10944084  0.39462822  0.81408744    -0.23700
H2203       H  0.11630141  0.39269020  0.67152900     0.05400
H2204       H  0.14789248  0.43154412  0.67510912     0.08700
H2205       H  0.10859327  0.42275074  0.67591830     0.08700
H2206       H  0.12796755  0.39255029  0.82523468     0.08700
H2207       H  0.08648575  0.37337567  0.81831243     0.08700
H2208       H  0.10971127  0.41420477  0.82492618     0.05400
C2209       C  0.31826277  0.89708799  0.77742683    -0.20400
C2210       C  0.30399854  0.87168994  0.75754987    -0.06900
C2211       C  0.27232283  0.85941172  0.74864571     0.13900
C2212       C  0.25685343  0.87295674  0.75962271    -0.20400
C2213       C  0.27098150  0.89760168  0.77981326    -0.06900
C2214       C  0.30204912  0.90985572  0.78897357     0.13900
C2215       C  0.31832926  0.93653965  0.81066769    -0.23800
H2216       H  0.34186576  0.90670345  0.78503536     0.15200
H2217       H  0.23287414  0.86356357  0.75294561     0.15200
C2218       C  0.25356999  0.83174737  0.72796668    -0.23700
H2219       H  0.34301365  0.94418911  0.81425287     0.05400
H2220       H  0.30701027  0.92957332  0.83312695     0.08700
H2221       H  0.31753414  0.95649042  0.80150091     0.08700
H2222       H  0.25290005  0.81102045  0.73674812     0.08700
H2223       H  0.26243000  0.83699359  0.70454408     0.08700
H2224       H  0.22899717  0.82496667  0.72595281     0.05400
C2225       C  0.15240456  0.57798691  0.77716199    -0.20400
C2226       C  0.15690519  0.60171258  0.75667655    -0.06900
C2227       C  0.15681133  0.59589253  0.72518624     0.13900
C2228       C  0.15383786  0.56832513  0.71585439    -0.20400
C2229       C  0.15314574  0.54648353  0.73650258    -0.06900
C2230       C  0.15081561  0.55101682  0.76785233     0.13900
C2231       C  0.14771736  0.52831324  0.79234364    -0.23800
H2232       H  0.15217216  0.58065310  0.80127342     0.15200
H2233       H  0.15466564  0.56597085  0.69178393     0.15200
C2234       C  0.16197955  0.61862144  0.69996661    -0.23700
H2235       H  0.14824101  0.53680064  0.81552308     0.05400
H2236       H  0.16684744  0.52414415  0.79164281     0.08700
H2237       H  0.12519144  0.50621684  0.78997059     0.08700
H2238       H  0.18212120  0.62332359  0.68633523     0.08700
H2239       H  0.16698653  0.64121124  0.70745175     0.08700
H2240       H  0.14116754  0.60841827  0.68487558     0.05400
C2241       C  0.11810890  0.68755973  0.76655108    -0.20400
C2242       C  0.14828782  0.69796452  0.75736001    -0.06900
C2243       C  0.16545722  0.72680866  0.74222006     0.13900
C2244       C  0.15255048  0.74490861  0.73766894    -0.20400
C2245       C  0.12265216  0.73508432  0.74756067    -0.06900
C2246       C  0.10505185  0.70568191  0.76198396     0.13900
C2247       C  0.07244223  0.69289109  0.77229035    -0.23800
H2248       H  0.10493239  0.66535419  0.77804453     0.15200
H2249       H  0.16612440  0.76708234  0.72624394     0.15200
C2250       C  0.19685507  0.73813237  0.72947568    -0.23700
H2251       H  0.06199714  0.66926683  0.78213297     0.05400
H2252       H  0.05772080  0.69152529  0.75266768     0.08700
H2253       H  0.07232517  0.70787785  0.79010060     0.08700
H2254       H  0.19498398  0.72048338  0.71384940     0.08700
H2255       H  0.21366642  0.74261339  0.74804449     0.08700
H2256       H  0.20597814  0.76001643  0.71636363     0.05400
C2257       C  0.26204610  0.73086041  0.78935112    -0.20400
C2258       C  0.24495564  0.71288378  0.76426468    -0.06900
C2259       C  0.25667491  0.72343305  0.73460553     0.13900
C2260       C  0.28342251  0.75287008  0.73096923    -0.20400
C2261       C  0.29801861  0.77228088  0.75581761    -0.06900
C2262       C  0.28849305  0.76038633  0.78553514     0.13900
C2263       C  0.30480410  0.77898805  0.81352363    -0.23800
H2264       H  0.25358369  0.72258809  0.81213087     0.15200
H2265       H  0.29055090  0.76207911  0.70820201     0.15200
C2266       C  0.24045218  0.70620605  0.70594195    -0.23700
H2267       H  0.28889360  0.78320314  0.82626906     0.05400
H2268       H  0.32597948  0.80155353  0.80801373     0.08700
H2269       H  0.31189641  0.76593452  0.82836046     0.08700
H2270       H  0.21756995  0.68521202  0.70982896     0.08700
H2271       H  0.25513083  0.69960772  0.69432355     0.08700
H2272       H  0.23683788  0.72138546  0.69034639     0.05400
C2273       C  0.41298843  0.85296112  0.72784701    -0.20400
C2274       C  0.39891468  0.85854068  0.75180978    -0.06900
C2275       C  0.41349159  0.86536566  0.78071192     0.13900
C2276       C  0.43923130  0.86267234  0.78549866    -0.20400
C2277       C  0.45011376  0.85165727  0.76283190    -0.06900
C2278       C  0.43866336  0.85004380  0.73268928     0.13900
C2279       C  0.45325321  0.84583728  0.70519769    -0.23800
H2280       H  0.40306794  0.84977279  0.70516481     0.15200
H2281       H  0.45040983  0.86928701  0.80745301     0.15200
C2282       C  0.40151211  0.87402685  0.80722777    -0.23700
H2283       H  0.44146765  0.84612372  0.68378350     0.05400
H2284       H  0.45197332  0.82358941  0.70584684     0.08700
H2285       H  0.47775430  0.86507550  0.70353303     0.08700
H2286       H  0.37675671  0.85618641  0.81099069     0.08700
H2287       H  0.40454556  0.89691017  0.80298492     0.08700
H2288       H  0.41435616  0.87596477  0.82863418     0.05400
C2289       C  0.43613151  0.60664617  0.77613592    -0.20400
C2290       C  0.44406287  0.61429606  0.74560840    -0.06900
C2291       C  0.42421888  0.59363437  0.72271304     0.13900
C2292       C  0.39698918  0.56614136  0.73114343    -0.20400
C2293       C  0.38915753  0.55845231  0.76170305    -0.06900
C2294       C  0.40912553  0.57898229  0.78457604     0.13900
C2295       C  0.40354237  0.57138778  0.81792751    -0.23800
H2296       H  0.45150662  0.62236554  0.79357384     0.15200
H2297       H  0.38181365  0.55020540  0.71373467     0.15200
C2298       C  0.43215142  0.59901815  0.68954599    -0.23700
H2299       H  0.42307185  0.58896116  0.83218783     0.05400
H2300       H  0.40122306  0.54888523  0.82258932     0.08700
H2301       H  0.38260766  0.57077426  0.82512304     0.08700
H2302       H  0.45490925  0.60168835  0.68637685     0.08700
H2303       H  0.43243908  0.61964148  0.68097354     0.08700
H2304       H  0.41492592  0.57926398  0.67539398     0.05400
C2305       C  0.45990271  0.71652100  0.75093285    -0.20400
C2306       C  0.48641534  0.72268936  0.73547398    -0.06900
C2307       C  0.50811053  0.75330188  0.72589238     0.13900
C2308       C  0.50490417  0.77725802  0.73535720    -0.20400
C2309       C  0.48001089  0.77169314  0.75301423    -0.06900
C2310       C  0.45611842  0.74079882  0.75939479     0.13900
C2311       C  0.42732926  0.73340188  0.77576249    -0.23800
H2312       H  0.44303863  0.69295001  0.75780820     0.15200
H2313       H  0.52264555  0.80077292  0.72947406     0.15200
C2314       C  0.53556553  0.76180311  0.70642904    -0.23700
H2315       H  0.41194511  0.70820391  0.78024324     0.05400
H2316       H  0.41409400  0.74076617  0.76161073     0.08700
H2317       H  0.43331872  0.74548443  0.79780025     0.08700
H2318       H  0.53574868  0.74146832  0.69857435     0.08700
H2319       H  0.53506115  0.77442375  0.68582557     0.08700
H2320       H  0.55734102  0.77705876  0.71938018     0.05400
C2321       C  0.61302933  0.89555113  0.76421105    -0.20400
C2322       C  0.61835601  0.88884607  0.73501376    -0.06900
C2323       C  0.59291660  0.87362372  0.71426186     0.13900
C2324       C  0.56299198  0.86417928  0.72395078    -0.20400
C2325       C  0.55766829  0.86870165  0.75391489    -0.06900
C2326       C  0.58306126  0.88531358  0.77398940     0.13900
C2327       C  0.57859176  0.89182576  0.80598441    -0.23800
H2328       H  0.63228079  0.90774312  0.78007282     0.15200
H2329       H  0.54340904  0.85193531  0.70846526     0.15200
C2330       C  0.59677874  0.86701731  0.68199976    -0.23700
H2331       H  0.60102193  0.90690164  0.81801768     0.05400
H2332       H  0.56552988  0.90357701  0.80577043     0.08700
H2333       H  0.56574989  0.86981877  0.81887776     0.08700
H2334       H  0.60466025  0.85056753  0.68180460     0.08700
H2335       H  0.61382671  0.88886831  0.67027820     0.08700
H2336       H  0.57465578  0.85636162  0.66884733     0.05400
C2337       C  0.59906575  0.71969173  0.79691064    -0.20400
C2338       C  0.62328830  0.72527286  0.77790260    -0.06900
C2339       C  0.61565342  0.70835818  0.75057503     0.13900
C2340       C  0.58452524  0.69054831  0.74096175    -0.20400
C2341       C  0.56064932  0.68944826  0.75754169    -0.06900
C2342       C  0.56793450  0.70110346  0.78768893     0.13900
C2343       C  0.54390021  0.69547702  0.81065411    -0.23800
H2344       H  0.60434667  0.73054700  0.81899160     0.15200
H2345       H  0.57933170  0.67812302  0.71995368     0.15200
C2346       C  0.63989117  0.70900400  0.73105560    -0.23700
H2347       H  0.54678149  0.71779289  0.81696062     0.05400
H2348       H  0.51983690  0.67980332  0.80258660     0.08700
H2349       H  0.54709390  0.68468359  0.83138905     0.08700
H2350       H  0.65380916  0.70217175  0.74487157     0.08700
H2351       H  0.65514732  0.73244708  0.72122010     0.08700
H2352       H  0.62939840  0.69269284  0.71177797     0.05400
C2353       C  0.48051599  0.67069590  0.60984928    -0.20400
C2354       C  0.49329582  0.65460914  0.59833201    -0.06900
C2355       C  0.50154764  0.63837731  0.61858488     0.13900
C2356       C  0.50213029  0.64333794  0.64974370    -0.20400
C2357       C  0.49400799  0.66351929  0.66117850    -0.06900
C2358       C  0.48139884  0.67607174  0.64110235     0.13900
C2359       C  0.47082752  0.69674118  0.65176201    -0.23800
H2360       H  0.47141221  0.68060590  0.59426352     0.15200
H2361       H  0.50979806  0.63199079  0.66533250     0.15200
C2362       C  0.50867962  0.61507079  0.60763494    -0.23700
H2363       H  0.46517035  0.70720467  0.63239093     0.05400
H2364       H  0.48933739  0.71587302  0.66547846     0.08700
H2365       H  0.44949455  0.68328431  0.66519874     0.08700
H2366       H  0.53014763  0.62619736  0.59426786     0.08700
H2367       H  0.48908650  0.59761090  0.59338127     0.08700
H2368       H  0.51191309  0.60267728  0.62692625     0.05400
C2369       C  0.58287343  0.68229975  0.49376793    -0.20400
C2370       C  0.57248076  0.69336031  0.51671383    -0.06900
C2371       C  0.59470064  0.72173032  0.53129532     0.13900
C2372       C  0.62536731  0.73781544  0.52199460    -0.20400
C2373       C  0.63494452  0.72806740  0.49761161    -0.06900
C2374       C  0.61365298  0.69952467  0.48369395     0.13900
C2375       C  0.62309131  0.68693044  0.45838825    -0.23800
H2376       H  0.56699313  0.66085049  0.48255543     0.15200
H2377       H  0.64169550  0.75962979  0.53287023     0.15200
C2378       C  0.58779004  0.73762071  0.55577168    -0.23700
H2379       H  0.60398183  0.66351195  0.45145680     0.05400
H2380       H  0.64302919  0.68523693  0.46598281     0.08700
H2381       H  0.62849124  0.70285575  0.93801721     0.08700
H2382       H  0.56335725  0.72654260  0.56203572     0.08700
H2383       H  0.59608712  0.76019321  0.05039942     0.08700
H2384       H  0.60110219  0.73933513  0.57675109     0.05400
C2385       C  0.50751452  0.80408939  0.89137505    -0.20400
C2386       C  0.51315410  0.82972513  0.90811690    -0.06900
C2387       C  0.52143645  0.85746017  0.89253696     0.13900
C2388       C  0.51860959  0.85722543  0.86094542    -0.20400
C2389       C  0.50886205  0.83036254  0.84426959    -0.06900
C2390       C  0.50516825  0.80399530  0.85944456     0.13900
C2391       C  0.49662414  0.77511849  0.84259740    -0.23800
H2392       H  0.50276870  0.78336298  0.90327120     0.15200
H2393       H  0.52289703  0.87798343  0.84923360     0.15200
C2394       C  0.53283914  0.88757879  0.90851982    -0.23700
H2395       H  0.51527735  0.77987796  0.82677943     0.05400
H2396       H  0.49325102  0.75633070  0.85831458     0.08700
H2397       H  0.47475376  0.76673612  0.82974032     0.08700
H2398       H  0.53689507  0.88627262  0.93319764     0.08700
H2399       H  0.51582215  0.89463685  0.90517906     0.08700
H2400       H  0.55530957  0.90575606  0.89880677     0.05400
C2401       C  0.60797171  0.84379843  0.51563108    -0.20400
C2402       C  0.62653040  0.87593497  0.51854708    -0.06900
C2403       C  0.61358395  0.89351159  0.01191796     0.13900
C2404       C  0.58208225  0.87840060  0.00322528    -0.20400
C2405       C  0.56331007  0.84600840  0.00038625    -0.06900
C2406       C  0.57691984  0.82878056  0.50602304     0.13900
C2407       C  0.56044256  0.79424833  0.50407536    -0.23800
H2408       H  0.61791565  0.82999016  0.52074186     0.15200
H2409       H  0.57214215  0.89217360  0.99803518     0.15200
C2410       C  0.63218938  0.92824598  0.01412969    -0.23700
H2411       H  0.57201058  0.78790946  0.48730610     0.05400
H2412       H  0.53643097  0.78318309  0.99848190     0.08700
H2413       H  0.56115904  0.78445784  0.52658227     0.08700
H2414       H  0.65113811  0.93822386  0.99737139     0.08700
H2415       H  0.64170907  0.93549602  0.53691764     0.08700
H2416       H  0.61778942  0.93819191  0.00920111     0.05400
C2417       C  0.47668175  0.70614152  0.98553903    -0.20400
C2418       C  0.48468579  0.70746775  0.51536292    -0.06900
C2419       C  0.48861237  0.73161429  0.53378140     0.13900
C2420       C  0.48287925  0.75335003  0.52119108    -0.20400
C2421       C  0.47773001  0.75402020  0.48979675    -0.06900
C2422       C  0.47340405  0.72932405  0.97216573     0.13900
C2423       C  0.46583610  0.72753544  0.93877234    -0.23800
H2424       H  0.47484805  0.68809881  0.97137661     0.15200
H2425       H  0.48699834  0.77255829  0.53507930     0.15200
C2426       C  0.50253770  0.73761013  0.56535682    -0.23700
H2427       H  0.44440088  0.70493589  0.93376384     0.05400
H2428       H  0.48513810  0.72963793  0.92554204     0.08700
H2429       H  0.46162502  0.74581593  0.93126704     0.08700
H2430       H  0.51106568  0.72240321  0.57175450     0.08700
H2431       H  0.48517146  0.73472355  0.58200023     0.08700
H2432       H  0.52284148  0.76167346  0.56676998     0.05400
C2433       C  0.17358425  0.69429248  0.89220435    -0.20400
C2434       C  0.17607183  0.67300889  0.91090486    -0.06900
C2435       C  0.18278496  0.65247350  0.89719820     0.13900
C2436       C  0.18682738  0.65405166  0.86573662    -0.20400
C2437       C  0.18112276  0.67299947  0.84671143    -0.06900
C2438       C  0.17478064  0.69384656  0.86037093     0.13900
C2439       C  0.16710565  0.71423798  0.84220487    -0.23800
H2440       H  0.16924672  0.71067828  0.90256218     0.15200
H2441       H  0.19275268  0.63873595  0.85564298     0.15200
C2442       C  0.18271751  0.62664159  0.91436503    -0.23700
H2443       H  0.15809744  0.72509246  0.85683102     0.05400
H2444       H  0.14888958  0.70040935  0.82496936     0.08700
H2445       H  0.18817068  0.73343052  0.83142062     0.08700
H2446       H  0.16160058  0.61380057  0.92822011     0.08700
H2447       H  0.20390149  0.63564665  0.92855985     0.08700
H2448       H  0.18240525  0.60966370  0.89875733     0.05400
C2449       C  0.34622851  0.85724607  0.61808540    -0.20400
C2450       C  0.34151155  0.82980919  0.60656247    -0.06900
C2451       C  0.33715735  0.80605105  0.62690112     0.13900
C2452       C  0.33472281  0.80931652  0.65803576    -0.20400
C2453       C  0.33841387  0.83642982  0.66967245    -0.06900
C2454       C  0.34664824  0.86162838  0.64941800     0.13900
C2455       C  0.35888213  0.89419941  0.65974718    -0.23800
H2456       H  0.35182166  0.87624216  0.60259945     0.15200
H2457       H  0.32979315  0.79034746  0.67315532     0.15200
C2458       C  0.33520220  0.77706410  0.61682145    -0.23700
H2459       H  0.38027567  0.91057414  0.64719147     0.05400
H2460       H  0.36570027  0.89768370  0.68410107     0.08700
H2461       H  0.34138555  0.90038309  0.65494445     0.08700
H2462       H  0.35518524  0.77647714  0.62641548     0.08700
H2463       H  0.33512448  0.77529073  0.59186320     0.08700
H2464       H  0.31346313  0.75647450  0.62517229     0.05400
C2465       C  0.44381122  0.82146849  0.52653803    -0.20400
C2466       C  0.45890812  0.83775669  0.50010951    -0.06900
C2467       C  0.45050290  0.85752049  0.98814632     0.13900
C2468       C  0.42317385  0.85514203  0.99775034    -0.20400
C2469       C  0.40436752  0.83425613  0.51956158    -0.06900
C2470       C  0.41543476  0.81688272  0.53457325     0.13900
C2471       C  0.39814291  0.79197921  0.55834899    -0.23800
H2472       H  0.45211375  0.80860717  0.53882468     0.15200
H2473       H  0.41713317  0.87047277  0.98724815     0.15200
C2474       C  0.47116836  0.88403980  0.96726074    -0.23700
H2475       H  0.39604288  0.77025930  0.55102100     0.05400
H2476       H  0.37447477  0.78602428  0.56230525     0.08700
H2477       H  0.41117463  0.79921067  0.58026607     0.08700
H2478       H  0.46021620  0.88014217  0.94434640     0.08700
H2479       H  0.49456242  0.88778477  0.96571442     0.08700
H2480       H  0.47466483  0.90578567  0.97641188     0.05400
C2481       C  0.28413749  0.75560241  0.99290422    -0.20400
C2482       C  0.28811294  0.76475838  0.52335595    -0.06900
C2483       C  0.26333806  0.74747369  0.54364009     0.13900
C2484       C  0.23486857  0.72358685  0.53232446    -0.20400
C2485       C  0.22976195  0.71709349  0.50121473    -0.06900
C2486       C  0.25526796  0.73256783  0.98110852     0.13900
C2487       C  0.25148241  0.72742198  0.94727731    -0.23800
H2488       H  0.30313749  0.76886656  0.97742963     0.15200
H2489       H  0.21589965  0.71056595  0.54792405     0.15200
C2490       C  0.26529806  0.75325055  0.57722098    -0.23700
H2491       H  0.27301115  0.74406969  0.93505613     0.05400
H2492       H  0.23275691  0.73048261  0.93838904     0.08700
H2493       H  0.24603675  0.70394030  0.94196545     0.08700
H2494       H  0.24810311  0.75919554  0.58329968     0.08700
H2495       H  0.28814794  0.77220478  0.58472118     0.08700
H2496       H  0.26013436  0.73209973  0.58996194     0.05400
C2497       C  0.30874058  0.90106701  0.50694939    -0.20400
C2498       C  0.27922188  0.88054762  0.49421098    -0.06900
C2499       C  0.26971313  0.84924715  0.49006781     0.13900
C2500       C  0.28963222  0.83938395  0.49908479    -0.20400
C2501       C  0.31870901  0.85968965  0.51233835    -0.06900
C2502       C  0.32860811  0.89099105  0.51602988     0.13900
C2503       C  0.35944064  0.91336648  0.53072168    -0.23800
H2504       H  0.31611104  0.92500633  0.51025718     0.15200
H2505       H  0.28205966  0.81529252  0.49657878     0.15200
C2506       C  0.23797021  0.82555750  0.47786481    -0.23700
H2507       H  0.36320756  0.93675084  0.53274293     0.05400
H2508       H  0.37804307  0.91421256  0.01702228     0.08700
H2509       H  0.36060739  0.90502181  0.55387415     0.08700
H2510       H  0.23531291  0.83138818  0.45405103     0.08700
H2511       H  0.21996084  0.82483940  0.49217484     0.08700
H2512       H  0.23399431  0.80196958  0.47792534     0.05400
C2513       C  0.10745524  0.70428426  0.54448788    -0.20400
C2514       C  0.09873241  0.72027705  0.52470797    -0.06900
C2515       C  0.09758242  0.71523269  0.99319458     0.13900
C2516       C  0.10692726  0.69597526  0.98208138    -0.20400
C2517       C  0.11908047  0.68266143  0.50158912    -0.06900
C2518       C  0.11737809  0.68541061  0.53355662     0.13900
C2519       C  0.12727743  0.66993212  0.55666733    -0.23800
H2520       H  0.10802862  0.70775118  0.56873495     0.15200
H2521       H  0.10609861  0.69334073  0.95789803     0.15200
C2522       C  0.08661471  0.73005234  0.97052784    -0.23700
H2523       H  0.12520275  0.67574220  0.58030767     0.05400
H2524       H  0.15174760  0.67718290  0.55374429     0.08700
H2525       H  0.11208099  0.64448528  0.55472827     0.08700
H2526       H  0.10327466  0.75543499  0.96979605     0.08700
H2527       H  0.06330683  0.72471814  0.97678577     0.08700
H2528       H  0.08479226  0.72146439  0.94711482     0.05400
C2529       C  0.32603513  0.51876597  0.89663480    -0.20400
C2530       C  0.34503696  0.51019173  0.91118097    -0.06900
C2531       C  0.36362474  0.50364899  0.89364601     0.13900
C2532       C  0.35980418  0.50213789  0.86209757    -0.20400
C2533       C  0.33851674  0.50780697  0.84743789    -0.06900
C2534       C  0.32202872  0.51715662  0.86499406     0.13900
C2535       C  0.29822381  0.52323876  0.85209681    -0.23800
H2536       H  0.31219375  0.52432499  0.91016296     0.15200
H2537       H  0.37328463  0.49592457  0.84877490     0.15200
C2538       C  0.38760289  0.49812727  0.90746579    -0.23700
H2539       H  0.30541732  0.54743426  0.85687943     0.05400
H2540       H  0.27555555  0.50731563  0.86289739     0.08700
H2541       H  0.29464921  0.51965455  0.82751205     0.08700
H2542       H  0.38089412  0.47398014  0.90315730     0.08700
H2543       H  0.39077028  0.50234474  0.93227666     0.08700
H2544       H  0.41036320  0.51417797  0.89690989     0.05400
C2545       C  0.42910846  0.61033685  0.49960037    -0.20400
C2546       C  0.45479778  0.60795577  0.50562431    -0.06900
C2547       C  0.45066170  0.57834479  0.50661556     0.13900
C2548       C  0.42083146  0.55208709  0.50203820    -0.20400
C2549       C  0.39455441  0.55428034  0.49821605    -0.06900
C2550       C  0.39910998  0.58425185  0.49754076     0.13900
C2551       C  0.37373869  0.59129096  0.99755489    -0.23800
H2552       H  0.43215370  0.63300721  0.49878987     0.15200
H2553       H  0.41818492  0.52964413  0.50156770     0.15200
C2554       C  0.47707354  0.57390975  0.51361699    -0.23700
H2555       H  0.37698193  0.60624938  0.01706617     0.05400
H2556       H  0.35080172  0.56949436  0.50095142     0.08700
H2557       H  0.37415579  0.60333448  0.97613146     0.08700
H2558       H  0.48869301  0.58541772  0.53528916     0.08700
H2559       H  0.49390770  0.58348950  0.49486933     0.08700
H2560       H  0.46898693  0.54906267  0.51602173     0.05400
C2561       C  0.19826001  0.50135512  0.60299481    -0.20400
C2562       C  0.17130183  0.49378852  0.58645978    -0.06900
C2563       C  0.14320032  0.48166658  0.60212017     0.13900
C2564       C  0.14363003  0.48155228  0.63391864    -0.20400
C2565       C  0.17131877  0.49265915  0.65053123    -0.06900
C2566       C  0.19869350  0.50132765  0.63500302     0.13900
C2567       C  0.22872383  0.51280400  0.65203679    -0.23800
H2568       H  0.21948372  0.50932359  0.59099482     0.15200
H2569       H  0.12239171  0.47413509  0.64587888     0.15200
C2570       C  0.11247982  0.46917298  0.58594266    -0.23700
H2571       H  0.24807275  0.51920458  0.63641791     0.05400
H2572       H  0.22650019  0.49452492  0.66776793     0.08700
H2573       H  0.23467320  0.53359091  0.66521000     0.08700
H2574       H  0.11413335  0.46856975  0.56092895     0.08700
H2575       H  0.10288679  0.48353989  0.59134592     0.08700
H2576       H  0.09607507  0.44506853  0.59369476     0.05400
C2577       C  0.18444499  0.58515561  0.51749106    -0.20400
C2578       C  0.16217217  0.55678724  0.50377114    -0.06900
C2579       C  0.13714683  0.55577689  0.48742630     0.13900
C2580       C  0.13695603  0.58316564  0.48367025    -0.20400
C2581       C  0.16040328  0.61129012  0.49602501    -0.06900
C2582       C  0.18369120  0.61197189  0.51417720     0.13900
C2583       C  0.20715085  0.64062716  0.53116524    -0.23800
H2584       H  0.20288691  0.58633729  0.53135679     0.15200
H2585       H  0.11857419  0.58283827  0.47051216     0.15200
C2586       C  0.10999653  0.52676893  0.47440399    -0.23700
H2587       H  0.22218944  0.63635872  0.54635061     0.05400
H2588       H  0.19507305  0.64854547  0.54545408     0.08700
H2589       H  0.22285212  0.65893647  0.01462999     0.08700
H2590       H  0.09887117  0.50887138  0.49250040     0.08700
H2591       H  0.11989405  0.51996241  0.95299576     0.08700
H2592       H  0.09187727  0.53060481  0.46512130     0.05400
C2593       C  0.23321389  0.50166066  0.97709401    -0.20400
C2594       C  0.23699651  0.52144860  0.50083764    -0.06900
C2595       C  0.26498670  0.53745908  0.51744821     0.13900
C2596       C  0.28868531  0.53239266  0.51086465    -0.20400
C2597       C  0.28586857  0.51380498  0.48634734    -0.06900
C2598       C  0.25780433  0.49889598  0.96852877     0.13900
C2599       C  0.25260746  0.47847330  0.94192011    -0.23800
H2600       H  0.21129597  0.48856074  0.96513360     0.15200
H2601       H  0.30853000  0.54153979  0.52604048     0.15200
C2602       C  0.26957128  0.55938386  0.54229864    -0.23700
H2603       H  0.23320559  0.45453937  0.94684901     0.05400
H2604       H  0.27327268  0.47775527  0.93651539     0.08700
H2605       H  0.24650559  0.48723698  0.92141935     0.08700
H2606       H  0.25198987  0.54714152  0.56002270     0.08700
H2607       H  0.26716771  0.57822838  0.53261808     0.08700
H2608       H  0.29285993  0.56997166  0.55315652     0.05400
C2609       C  0.27551907  0.38067066  0.99302166    -0.20400
C2610       C  0.28615837  0.37366320  0.52159310    -0.06900
C2611       C  0.31183333  0.39805214  0.53719368     0.13900
C2612       C  0.32600007  0.42844146  0.52544741    -0.20400
C2613       C  0.31402619  0.43531019  0.49936080    -0.06900
C2614       C  0.28813153  0.41082472  0.98226834     0.13900
C2615       C  0.27160114  0.41461462  0.95501839    -0.23800
H2616       H  0.25563827  0.36187756  0.98127696     0.15200
H2617       H  0.34525182  0.44679060  0.53798446     0.15200
C2618       C  0.32428227  0.39220802  0.56615452    -0.23700
H2619       H  0.25026345  0.39245608  0.94855640     0.05400
H2620       H  0.28607973  0.42239063  0.93454456     0.08700
H2621       H  0.26392319  0.43051296  0.96009708     0.08700
H2622       H  0.33057021  0.37487880  0.56210236     0.08700
H2623       H  0.30661728  0.38355434  0.58415216     0.08700
H2624       H  0.34527064  0.41362317  0.57466024     0.05400
C2625       C  0.13084221  0.40451780  0.95903079    -0.20400
C2626       C  0.12472391  0.38315487  0.48271942    -0.06900
C2627       C  0.12625659  0.39219784  0.51325133     0.13900
C2628       C  0.13462747  0.42248441  0.51949250    -0.20400
C2629       C  0.14122827  0.44422414  0.49630893    -0.06900
C2630       C  0.13827127  0.43497405  0.46564948     0.13900
C2631       C  0.14372503  0.45647343  0.93913001    -0.23800
H2632       H  0.12959128  0.39763422  0.93563095     0.15200
H2633       H  0.13677330  0.42957242  0.54294681     0.15200
C2634       C  0.12044549  0.37063725  0.53968741    -0.23700
H2635       H  0.14300722  0.44609934  0.91695385     0.05400
H2636       H  0.16641274  0.47838044  0.44163485     0.08700
H2637       H  0.12536820  0.46185965  0.93842230     0.08700
H2638       H  0.13619280  0.36191035  0.53863099     0.08700
H2639       H  0.09597616  0.35100693  0.53922554     0.08700
H2640       H  0.12460310  0.38232900  0.56186274     0.05400
C2641       C  0.89835185  0.61082804  0.99875520    -0.20400
C2642       C  0.89731995  0.61539556  0.53075467    -0.06900
C2643       C  0.88840599  0.59007462  0.55102732     0.13900
C2644       C  0.88112992  0.56142333  0.53943705    -0.20400
C2645       C  0.88165620  0.55701033  0.50818938    -0.06900
C2646       C  0.89023832  0.58211991  0.98689466     0.13900
C2647       C  0.89191771  0.57922028  0.95309070    -0.23800
H2648       H  0.90509842  0.63001379  0.98318351     0.15200
H2649       H  0.87342578  0.54182634  0.55470800     0.15200
C2650       C  0.88536768  0.59240180  0.58469384    -0.23700
H2651       H  0.90192168  0.60188831  0.94124511     0.05400
H2652       H  0.86848831  0.56369454  0.94330435     0.08700
H2653       H  0.90677867  0.57001924  0.94839362     0.08700
H2654       H  0.86808603  0.59876033  0.58881502     0.08700
H2655       H  0.90813510  0.60994319  0.59473694     0.08700
H2656       H  0.87742905  0.57012544  0.59668666     0.05400
C2657       C  0.73154195  0.59566339  0.46299859    -0.20400
C2658       C  0.73411549  0.61843582  0.48244449    -0.06900
C2659       C  0.71494932  0.60870794  0.50827545     0.13900
C2660       C  0.69840537  0.57732751  0.51659717    -0.20400
C2661       C  0.70081149  0.55527627  0.50028574    -0.06900
C2662       C  0.71415729  0.56411192  0.47096529     0.13900
C2663       C  0.71038488  0.54051528  0.94779388    -0.23800
H2664       H  0.74365271  0.60225288  0.94150716     0.15200
H2665       H  0.68405984  0.57053232  0.53636491     0.15200
C2666       C  0.71193355  0.63093645  0.52768538    -0.23700
H2667       H  0.72085735  0.55178146  0.92573987     0.05400
H2668       H  0.68493020  0.52425794  0.44322768     0.08700
H2669       H  0.72156634  0.52795295  0.95525340     0.08700
H2670       H  0.70458566  0.64408255  0.51333101     0.08700
H2671       H  0.73427522  0.64702443  0.53934424     0.08700
H2672       H  0.69435619  0.61878839  0.54562847     0.05400
C2673       C  0.79199861  0.50287514  0.52883196    -0.20400
C2674       C  0.78729179  0.47848171  0.51082760    -0.06900
C2675       C  0.75655096  0.45465680  0.00224386     0.13900
C2676       C  0.73208866  0.45811083  0.00998968    -0.20400
C2677       C  0.73723502  0.48401579  0.52574200    -0.06900
C2678       C  0.76739361  0.50575370  0.53686265     0.13900
C2679       C  0.77482068  0.53297570  0.55623264    -0.23800
H2680       H  0.81531088  0.52055603  0.53577682     0.15200
H2681       H  0.70931093  0.44175646  0.00141273     0.15200
C2682       C  0.74991484  0.42662741  0.98478449    -0.23700
H2683       H  0.79082563  0.55482038  0.54390574     0.05400
H2684       H  0.78629611  0.53225609  0.57769300     0.08700
H2685       H  0.75405963  0.53319110  0.56252588     0.08700
H2686       H  0.75737492  0.41322765  0.99848457     0.08700
H2687       H  0.76248573  0.43357212  0.96302785     0.08700
H2688       H  0.72480696  0.41110009  0.97958174     0.05400
C2689       C  0.59171615  0.38465691  0.00280336    -0.20400
C2690       C  0.56544884  0.38575884  0.50463782    -0.06900
C2691       C  0.56958934  0.41516106  0.50989630     0.13900
C2692       C  0.59968998  0.44116644  0.51364775    -0.20400
C2693       C  0.62600255  0.43939335  0.51080967    -0.06900
C2694       C  0.62196491  0.41054255  0.50453832     0.13900
C2695       C  0.64822356  0.40678282  0.99856447    -0.23800
H2696       H  0.58928485  0.36269423  0.99909380     0.15200
H2697       H  0.60273908  0.46331692  0.51861195     0.15200
C2698       C  0.54328699  0.42053315  0.51010010    -0.23700
H2699       H  0.64021836  0.38313915  0.99063630     0.05400
H2700       H  0.66251615  0.41091938  0.51910107     0.08700
H2701       H  0.66243887  0.42314690  0.98021714     0.08700
H2702       H  0.53096896  0.41255934  0.53196592     0.08700
H2703       H  0.52732899  0.40893190  0.49051010     0.08700
H2704       H  0.55178548  0.44551642  0.50810358     0.05400
C2705       C  0.50989532  0.25305439  0.98720789    -0.20400
C2706       C  0.52408174  0.27935930  0.50254406    -0.06900
C2707       C  0.54003112  0.28159260  0.52999331     0.13900
C2708       C  0.54231019  0.25657908  0.53970473    -0.20400
C2709       C  0.52838917  0.22916967  0.52310676    -0.06900
C2710       C  0.51263703  0.22701102  0.49565195     0.13900
C2711       C  0.49527765  0.19877236  0.97895194    -0.23800
H2712       H  0.49462480  0.24993662  0.96837478     0.15200
H2713       H  0.55409013  0.25812514  0.56086980     0.15200
C2714       C  0.55272625  0.30930442  0.55023958    -0.23700
H2715       H  0.48339862  0.20089025  0.95845796     0.05400
H2716       H  0.47913889  0.17886523  0.49050370     0.08700
H2717       H  0.51221890  0.19311738  0.97133957     0.08700
H2718       H  0.53392618  0.31275456  0.55674593     0.08700
H2719       H  0.57086491  0.33011439  0.53826188     0.08700
H2720       H  0.56328038  0.30655507  0.57144339     0.05400
C2721       C  0.41885415  0.10745975  0.49371616    -0.20400
C2722       C  0.39744462  0.10604667  0.51431200    -0.06900
C2723       C  0.40674867  0.11365630  0.54508356     0.13900
C2724       C  0.43740129  0.12417694  0.55382387    -0.20400
C2725       C  0.45933219  0.12747758  0.53292583    -0.06900
C2726       C  0.44941085  0.11731301  0.50271249     0.13900
C2727       C  0.47060605  0.11902956  0.98025557    -0.23800
H2728       H  0.41128585  0.10146180  0.97114819     0.15200
H2729       H  0.44474618  0.13149013  0.57699551     0.15200
C2730       C  0.38529558  0.11272468  0.56864474    -0.23700
H2731       H  0.45994134  0.11370228  0.95714321     0.05400
H2732       H  0.47640294  0.09994692  0.48574150     0.08700
H2733       H  0.49238805  0.14193232  0.97908268     0.08700
H2734       H  0.36539974  0.08867186  0.57174890     0.08700
H2735       H  0.37686942  0.12794878  0.56144610     0.08700
H2736       H  0.39703536  0.12084341  0.59112442     0.05400
C2737       C  0.42318608  0.30761862  0.99593329    -0.20400
C2738       C  0.44813488  0.31004594  0.51432961    -0.06900
C2739       C  0.44161727  0.29866315  0.54478832     0.13900
C2740       C  0.41077823  0.27928121  0.55351860    -0.20400
C2741       C  0.38619836  0.27191178  0.53332897    -0.06900
C2742       C  0.39227940  0.28783143  0.00453599     0.13900
C2743       C  0.36710206  0.28384792  0.98285185    -0.23800
H2744       H  0.42757167  0.31942501  0.97436957     0.15200
H2745       H  0.40606968  0.26863016  0.57588255     0.15200
C2746       C  0.46602506  0.30442900  0.56842152    -0.23700
H2747       H  0.37664367  0.29963214  0.96288662     0.05400
H2748       H  0.35140724  0.28905924  0.99460101     0.08700
H2749       H  0.35382912  0.25990638  0.97402279     0.08700
H2750       H  0.48997429  0.32014479  0.56079110     0.08700
H2751       H  0.46340382  0.28215777  0.57533081     0.08700
H2752       H  0.46296770  0.31503502  0.58871818     0.05400
C2753       C  0.86785940  0.41466256  0.54074894    -0.20400
C2754       C  0.87019097  0.39706673  0.51821697    -0.06900
C2755       C  0.87394380  0.40746979  0.48781554     0.13900
C2756       C  0.87311284  0.43386714  0.48054261    -0.20400
C2757       C  0.86697172  0.44968298  0.50249515    -0.06900
C2758       C  0.86684326  0.44108098  0.53359211     0.13900
C2759       C  0.86755639  0.46076892  0.05778663    -0.23800
H2760       H  0.86576336  0.40702390  0.56418694     0.15200
H2761       H  0.87646397  0.44099787  0.45713765     0.15200
C2762       C  0.87680188  0.38979344  0.46244190    -0.23700
H2763       H  0.86796350  0.45067702  0.08024129     0.05400
H2764       H  0.84405093  0.45960488  0.55892002     0.08700
H2765       H  0.88855648  0.48431580  0.05710633     0.08700
H2766       H  0.87682001  0.39969415  0.43975782     0.08700
H2767       H  0.85703469  0.36537983  0.46278966     0.08700
H2768       H  0.89893700  0.39078876  0.46495208     0.05400
C2769       C  0.90041481  0.29481961  0.54029932    -0.20400
C2770       C  0.88970574  0.30819830  0.51895673    -0.06900
C2771       C  0.89360532  0.30573177  0.98678337     0.13900
C2772       C  0.90423235  0.28668062  0.97811868    -0.20400
C2773       C  0.91177041  0.27018922  0.50039794    -0.06900
C2774       C  0.91104150  0.27582442  0.53156674     0.13900
C2775       C  0.92003245  0.26084449  0.55605503    -0.23800
H2776       H  0.89999453  0.29807656  0.56427492     0.15200
H2777       H  0.90566851  0.28309778  0.95419438     0.15200
C2778       C  0.88642366  0.32171109  0.96171894    -0.23700
H2779       H  0.91681180  0.26681666  0.57922117     0.05400
H2780       H  0.94484209  0.26882563  0.55403223     0.08700
H2781       H  0.90545972  0.23529912  0.55402502     0.08700
H2782       H  0.90238923  0.34700720  0.96367993     0.08700
H2783       H  0.86213823  0.31556890  0.96218290     0.08700
H2784       H  0.88996908  0.31540170  0.93885379     0.05400
C2785       C  0.63315755  0.18981799  0.53654711    -0.20400
C2786       C  0.62909999  0.16450072  0.52091376    -0.06900
C2787       C  0.59794994  0.13970994  0.01478727     0.13900
C2788       C  0.57248635  0.14105322  0.02398713    -0.20400
C2789       C  0.57696507  0.16646310  0.53885468    -0.06900
C2790       C  0.60792059  0.19131484  0.54576202     0.13900
C2791       C  0.61633992  0.22062594  0.56198706    -0.23800
H2792       H  0.65651323  0.20915692  0.54100636     0.15200
H2793       H  0.54979828  0.12182254  0.01814947     0.15200
C2794       C  0.59252846  0.11227713  0.99705211    -0.23700
H2795       H  0.63124857  0.24089598  0.54717679     0.05400
H2796       H  0.62944869  0.22259471  0.58320491     0.08700
H2797       H  0.59659896  0.22223616  0.56824602     0.08700
H2798       H  0.60231870  0.10038505  0.00976694     0.08700
H2799       H  0.60380097  0.12005974  0.97459523     0.08700
H2800       H  0.56748349  0.09520967  0.99306431     0.05400
C2801       C  0.70232610  0.11595470  0.53241730    -0.20400
C2802       C  0.71018340  0.13561133  0.00725790    -0.06900
C2803       C  0.73658004  0.14104426  0.99089424     0.13900
C2804       C  0.75289778  0.12757117  0.00113068    -0.20400
C2805       C  0.74665080  0.11049714  0.52767212    -0.06900
C2806       C  0.71929792  0.10297076  0.54276822     0.13900
C2807       C  0.70843122  0.08233062  0.57054362    -0.23800
H2808       H  0.68205855  0.11038378  0.54488805     0.15200
H2809       H  0.77315028  0.13239302  0.98876653     0.15200
C2810       C  0.74906427  0.16162297  0.96290336    -0.23700
H2811       H  0.68732919  0.07993247  0.58016741     0.05400
H2812       H  0.72681525  0.09216858  0.58844632     0.08700
H2813       H  0.70268596  0.05884351  0.56455380     0.08700
H2814       H  0.75566788  0.18543261  0.96787867     0.08700
H2815       H  0.73224605  0.15224489  0.94376908     0.08700
H2816       H  0.77035005  0.16350002  0.95448847     0.05400
C2817       C  0.73256399  0.25850682  0.51901101    -0.20400
C2818       C  0.73125325  0.24142186  0.49383566    -0.06900
C2819       C  0.75525379  0.25444711  0.97330117     0.13900
C2820       C  0.78188065  0.28284953  0.98025616    -0.20400
C2821       C  0.78657805  0.29695350  0.50863568    -0.06900
C2822       C  0.75998788  0.28664509  0.52651220     0.13900
C2823       C  0.75993675  0.30473893  0.55304580    -0.23800
H2824       H  0.71308789  0.24856434  0.53426066     0.15200
H2825       H  0.80139002  0.29211703  0.96508021     0.15200
C2826       C  0.75588392  0.23839877  0.94517954    -0.23700
H2827       H  0.73696718  0.29295105  0.56405144     0.05400
H2828       H  0.76517682  0.32769915  0.54490269     0.08700
H2829       H  0.77715661  0.30799033  0.57058734     0.08700
H2830       H  0.73475960  0.21519852  0.94210596     0.08700
H2831       H  0.77610177  0.23575131  0.94643186     0.08700
H2832       H  0.75827501  0.25263071  0.92481373     0.05400
C2833       C  0.86787653  0.51666325  0.89994940    -0.20400
C2834       C  0.84086198  0.50399134  0.91707405    -0.06900
C2835       C  0.81239302  0.49465864  0.90197831     0.13900
C2836       C  0.81120907  0.49448433  0.87004064    -0.20400
C2837       C  0.83776725  0.50387892  0.85316029    -0.06900
C2838       C  0.86676350  0.51701973  0.86822509     0.13900
C2839       C  0.89681537  0.53047819  0.85154475    -0.23800
H2840       H  0.88989500  0.52469329  0.91144289     0.15200
H2841       H  0.78907588  0.48506581  0.85833973     0.15200
C2842       C  0.78258810  0.48315711  0.91835502    -0.23700
H2843       H  0.91281098  0.55484407  0.85854880     0.05400
H2844       H  0.89386119  0.53052755  0.82655497     0.08700
H2845       H  0.90764840  0.51705869  0.85730771     0.08700
H2846       H  0.77288145  0.49735290  0.91146044     0.08700
H2847       H  0.78556890  0.48464298  0.94323220     0.08700
H2848       H  0.76564593  0.45871914  0.91223120     0.05400
C2849       C  0.88855508  0.59850517  0.72771537    -0.20400
C2850       C  0.89412084  0.61978771  0.75062423    -0.06900
C2851       C  0.89053912  0.60981066  0.78139862     0.13900
C2852       C  0.87971949  0.57873802  0.78806855    -0.20400
C2853       C  0.87271574  0.55722361  0.76513126    -0.06900
C2854       C  0.87825621  0.56750268  0.73450129     0.13900
C2855       C  0.87273041  0.54609502  0.70868151    -0.23800
H2856       H  0.89205519  0.60609536  0.70417578     0.15200
H2857       H  0.87589290  0.57089668  0.81154789     0.15200
C2858       C  0.89709951  0.63121516  0.80752032    -0.23700
H2859       H  0.87617103  0.55770860  0.68622700     0.05400
H2860       H  0.84879416  0.52563418  0.70905756     0.08700
H2861       H  0.88936122  0.53847679  0.71039140     0.08700
H2862       H  0.88202695  0.64074596  0.80561093     0.08700
H2863       H  0.92183594  0.65027796  0.80754787     0.08700
H2864       H  0.89256393  0.61913321  0.82983273     0.05400
C2865       C  0.68500051  0.47999931  0.64712794    -0.20400
C2866       C  0.66838496  0.49232226  0.65838534    -0.06900
C2867       C  0.65010082  0.49809468  0.63805724     0.13900
C2868       C  0.65202942  0.49491062  0.60687608    -0.20400
C2869       C  0.67233557  0.48707117  0.59527652    -0.06900
C2870       C  0.68785217  0.47792404  0.61574427     0.13900
C2871       C  0.70915665  0.46808310  0.60527015    -0.23800
H2872       H  0.69758218  0.47402835  0.66282676     0.15200
H2873       H  0.63895791  0.50054261  0.59129559     0.15200
C2874       C  0.62857751  0.50801964  0.64792610    -0.23700
H2875       H  0.72124631  0.46448564  0.62464421     0.05400
H2876       H  0.72710179  0.48612621  0.59044606     0.08700
H2877       H  0.69583584  0.44588962  0.59302685     0.08700
H2878       H  0.63617091  0.53110206  0.63803702     0.08700
H2879       H  0.62740214  0.50932390  0.67286105     0.08700
H2880       H  0.60474447  0.49113238  0.63956446     0.05400
C2881       C  0.69520529  0.57811348  0.77037182    -0.20400
C2882       C  0.70175343  0.57202122  0.74128671    -0.06900
C2883       C  0.72615311  0.59751760  0.72466908     0.13900
C2884       C  0.74195871  0.62711833  0.73724870    -0.20400
C2885       C  0.73649338  0.63238975  0.76674706    -0.06900
C2886       C  0.71241437  0.60766128  0.78341025     0.13900
C2887       C  0.70496385  0.61196881  0.81516237    -0.23800
H2888       H  0.67818071  0.55936292  0.78433593     0.15200
H2889       H  0.76044903  0.64617844  0.72450854     0.15200
C2890       C  0.73789083  0.59455755  0.69446680    -0.23700
H2891       H  0.68430152  0.59062689  0.82411353     0.05400
H2892       H  0.70011273  0.63070432  0.81522671     0.08700
H2893       H  0.72463273  0.61780279  0.83084072     0.08700
H2894       H  0.72177245  0.59196771  0.67581957     0.08700
H2895       H  0.74159946  0.57517407  0.69484923     0.08700
H2896       H  0.76059027  0.61555316  0.68872562     0.05400
C2897       C  0.72197619  0.47281110  0.76528822    -0.20400
C2898       C  0.72753496  0.49166853  0.73955938    -0.06900
C2899       C  0.75621168  0.50521283  0.72473424     0.13900
C2900       C  0.77920212  0.50098152  0.73692261    -0.20400
C2901       C  0.77444821  0.48385315  0.76360547    -0.06900
C2902       C  0.74527529  0.46879314  0.77761787     0.13900
C2903       C  0.73845609  0.44934666  0.80596207    -0.23800
H2904       H  0.70005579  0.46267957  0.77680049     0.15200
H2905       H  0.80153188  0.51213661  0.72618938     0.15200
C2906       C  0.76321556  0.52515828  0.69673483    -0.23700
H2907       H  0.71858603  0.42554683  0.80150819     0.05400
H2908       H  0.73238416  0.45944305  0.82456650     0.08700
H2909       H  0.75834727  0.44773255  0.81380183     0.08700
H2910       H  0.76295053  0.54600219  0.70219137     0.08700
H2911       H  0.74588695  0.51206265  0.67861908     0.08700
H2912       H  0.78644266  0.53299598  0.68766704     0.05400
C2913       C  0.52422662  0.32032094  0.87025405    -0.20400
C2914       C  0.51629159  0.33951484  0.85522701    -0.06900
C2915       C  0.50818483  0.35716120  0.87252338     0.13900
C2916       C  0.50730464  0.35422603  0.90425701    -0.20400
C2917       C  0.51346589  0.33356004  0.91929479    -0.06900
C2918       C  0.52223108  0.31649241  0.90194314     0.13900
C2919       C  0.52570873  0.29143722  0.91580442    -0.23800
H2920       H  0.52937751  0.30615556  0.85695631     0.15200
H2921       H  0.50071419  0.36751851  0.91738251     0.15200
C2922       C  0.49982493  0.37892530  0.85841500    -0.23700
H2923       H  0.53184169  0.27998457  0.89866897     0.05400
H2924       H  0.50313925  0.27364752  0.92529267     0.08700
H2925       H  0.54411394  0.30068927  0.93353641     0.08700
H2926       H  0.50299148  0.38146996  0.83351906     0.08700
H2927       H  0.51484722  0.40227929  0.86830144     0.08700
H2928       H  0.47528673  0.37047043  0.86329990     0.05400
C2929       C  0.57403948  0.40501910  0.73854187    -0.20400
C2930       C  0.56800266  0.39897648  0.76955071    -0.06900
C2931       C  0.58896404  0.42095792  0.79090393     0.13900
C2932       C  0.61579629  0.44804576  0.78047127    -0.20400
C2933       C  0.62215009  0.45374506  0.74933009    -0.06900
C2934       C  0.60048323  0.43201602  0.72809539     0.13900
C2935       C  0.60363660  0.43739739  0.69430737    -0.23800
H2936       H  0.55780342  0.38829939  0.72224473     0.15200
H2937       H  0.63206156  0.46485490  0.79674322     0.15200
C2938       C  0.58264758  0.41684177  0.82446510    -0.23700
H2939       H  0.58286301  0.41943300  0.68165106     0.05400
H2940       H  0.62349107  0.43672444  0.68590417     0.08700
H2941       H  0.60617643  0.45979215  0.68896171     0.08700
H2942       H  0.58311552  0.39674231  0.83346789     0.08700
H2943       H  0.55975265  0.41353974  0.82866792     0.08700
H2944       H  0.60030220  0.43738911  0.83745846     0.05400
C2945       C  0.53444065  0.21061643  0.66498123    -0.20400
C2946       C  0.51069954  0.18495599  0.68036568    -0.06900
C2947       C  0.48828590  0.15899833  0.66375119     0.13900
C2948       C  0.49131528  0.15854399  0.63213762    -0.20400
C2949       C  0.51679310  0.18315000  0.61715013    -0.06900
C2950       C  0.53815134  0.20987033  0.63370613     0.13900
C2951       C  0.56624204  0.23720920  0.61966218    -0.23800
H2952       H  0.55230580  0.23007628  0.67793606     0.15200
H2953       H  0.47533414  0.13786728  0.61963704     0.15200
C2954       C  0.46267164  0.13094767  0.67982105    -0.23700
H2955       H  0.58751964  0.24025925  0.63057368     0.05400
H2956       H  0.56746173  0.23453473  0.59507390     0.08700
H2957       H  0.56575868  0.25839338  0.62313035     0.08700
H2958       H  0.44871662  0.13755921  0.69282239     0.08700
H2959       H  0.47256936  0.12122820  0.69577031     0.08700
H2960       H  0.44703574  0.11257058  0.66356635     0.05400
C2961       C  0.54324971  0.26420864  0.73786708    -0.20400
C2962       C  0.54569782  0.24761045  0.76224310    -0.06900
C2963       C  0.55057442  0.25975383  0.79192684     0.13900
C2964       C  0.54658176  0.28453657  0.79693993    -0.20400
C2965       C  0.53972007  0.29830037  0.77276975    -0.06900
C2966       C  0.54154120  0.29021747  0.74269708     0.13900
C2967       C  0.54183640  0.30901957  0.71569312    -0.23800
H2968       H  0.54133193  0.25601695  0.71493799     0.15200
H2969       H  0.54734915  0.29205971  0.81983737     0.15200
C2970       C  0.55909079  0.24638165  0.81833217    -0.23700
H2971       H  0.54565433  0.30058029  0.69419564     0.05400
H2972       H  0.56099053  0.33348459  0.71857547     0.08700
H2973       H  0.51967867  0.30794361  0.71311383     0.08700
H2974       H  0.58233525  0.25028502  0.81462482     0.08700
H2975       H  0.54224642  0.22126147  0.82073981     0.08700
H2976       H  0.56003928  0.25754016  0.84008128     0.05400
C2977       C  0.39895561  0.29813123  0.76079514    -0.20400
C2978       C  0.39227692  0.27882370  0.73577773    -0.06900
C2979       C  0.41708134  0.28314697  0.71799546     0.13900
C2980       C  0.44754502  0.30292837  0.72866525    -0.20400
C2981       C  0.45379830  0.31775129  0.75697023    -0.06900
C2982       C  0.42949846  0.31887457  0.77044481     0.13900
C2983       C  0.43491518  0.34283719  0.79332519    -0.23800
H2984       H  0.38021426  0.29727803  0.77281353     0.15200
H2985       H  0.46645371  0.30507100  0.71581253     0.15200
C2986       C  0.41192276  0.26598296  0.68879661    -0.23700
H2987       H  0.42362807  0.35519685  0.78506893     0.05400
H2988       H  0.45982372  0.36062763  0.79642745     0.08700
H2989       H  0.42468377  0.33159803  0.81544518     0.08700
H2990       H  0.39907088  0.27181796  0.67218226     0.08700
H2991       H  0.39867869  0.24069065  0.69326191     0.08700
H2992       H  0.43411080  0.27223464  0.67822462     0.05400
C2993       C  0.43676530  0.11913612  0.76298961    -0.20400
C2994       C  0.45951623  0.14921404  0.77205430    -0.06900
C2995       C  0.45070820  0.16590002  0.78983224     0.13900
C2996       C  0.41953920  0.15286896  0.79695522    -0.20400
C2997       C  0.39641200  0.12317634  0.78729738    -0.06900
C2998       C  0.40532763  0.10581536  0.77039370     0.13900
C2999       C  0.38217943  0.07333142  0.76019495    -0.23800
H3000       H  0.44357280  0.10623660  0.74954636     0.15200
H3001       H  0.41327869  0.16623008  0.81034158     0.15200
C3002       C  0.47413869  0.19703332  0.80262088    -0.23700
H3003       H  0.39341461  0.06318322  0.74790698     0.05400
H3004       H  0.36481881  0.07327014  0.74450715     0.08700
H3005       H  0.37043814  0.05834174  0.78024088     0.08700
H3006       H  0.48566871  0.21407936  0.78405049     0.08700
H3007       H  0.49116015  0.19487027  0.81661089     0.08700
H3008       H  0.46341779  0.20598990  0.81748641     0.05400
C3009       C  0.85573344  0.35961246  0.61749870    -0.20400
C3010       C  0.83745419  0.33183652  0.60201339    -0.06900
C3011       C  0.81752340  0.30439179  0.61840735     0.13900
C3012       C  0.81531079  0.30587390  0.64992845    -0.20400
C3013       C  0.83428680  0.33351863  0.66570571    -0.06900
C3014       C  0.85579836  0.36048076  0.64921579     0.13900
C3015       C  0.88137822  0.38961951  0.66410988    -0.23800
H3016       H  0.87267068  0.38005865  0.60503837     0.15200
H3017       H  0.80157834  0.28458418  0.66263528     0.15200
C3018       C  0.80115341  0.27309523  0.60344405    -0.23700
H3019       H  0.87968044  0.40954252  0.65666887     0.05400
H3020       H  0.90415923  0.39398702  0.65714000     0.08700
H3021       H  0.88085531  0.38846167  0.68919514     0.08700
H3022       H  0.81844091  0.26833568  0.59482615     0.08700
H3023       H  0.78635086  0.27200944  0.58418431     0.08700
H3024       H  0.78619130  0.25425961  0.61965353     0.05400
C3025       C  0.86641245  0.41148089  0.77412220    -0.20400
C3026       C  0.85070914  0.39477470  0.74769361    -0.06900
C3027       C  0.83727905  0.40740027  0.72831470     0.13900
C3028       C  0.83587411  0.43246375  0.73820364    -0.20400
C3029       C  0.84815342  0.44654545  0.76635469    -0.06900
C3030       C  0.86722444  0.43833231  0.78237295     0.13900
C3031       C  0.89061247  0.45826150  0.80644184    -0.23800
H3032       H  0.87861675  0.40397492  0.78862314     0.15200
H3033       H  0.82516216  0.44132723  0.72327913     0.15200
C3034       C  0.82500398  0.39692149  0.69655753    -0.23700
H3035       H  0.91355744  0.46221401  0.80080456     0.05400
H3036       H  0.88362780  0.44647527  0.82891625     0.08700
H3037       H  0.89407455  0.48150692  0.80762723     0.08700
H3038       H  0.79959657  0.38669901  0.69581034     0.08700
H3039       H  0.82999557  0.38031129  0.68769115     0.08700
H3040       H  0.83613063  0.41705909  0.68073191     0.05400
C3041       C  0.90539836  0.31254264  0.73644278    -0.20400
C3042       C  0.88787209  0.31857336  0.75617745    -0.06900
C3043       C  0.88866287  0.31175023  0.78751033     0.13900
C3044       C  0.89883955  0.29193400  0.79628758    -0.20400
C3045       C  0.91109586  0.28112768  0.77514926    -0.06900
C3046       C  0.91687410  0.29392064  0.74539167     0.13900
C3047       C  0.93440226  0.28772931  0.72245808    -0.23800
H3048       H  0.90988651  0.32165904  0.71363578     0.15200
H3049       H  0.89695137  0.28466432  0.81983449     0.15200
C3050       C  0.87931817  0.32546222  0.81191220    -0.23700
H3051       H  0.93735933  0.30036335  0.70072702     0.05400
H3052       H  0.92166899  0.26271239  0.71716501     0.08700
H3053       H  0.95789563  0.29549247  0.73155652     0.08700
H3054       H  0.85481956  0.31845860  0.80956646     0.08700
H3055       H  0.89425326  0.35104772  0.81080158     0.08700
H3056       H  0.88233950  0.31816532  0.83497705     0.05400
C3057       C  0.67367477  0.19418391  0.87541444    -0.20400
C3058       C  0.66406839  0.16616631  0.86116370    -0.06900
C3059       C  0.64753922  0.13850507  0.87832115     0.13900
C3060       C  0.64794045  0.14019602  0.90997536    -0.20400
C3061       C  0.66320553  0.16878093  0.92492416    -0.06900
C3062       C  0.67289185  0.19589421  0.90719000     0.13900
C3063       C  0.68233213  0.22655247  0.92074321    -0.23800
H3064       H  0.68302934  0.21505788  0.86183258     0.15200
H3065       H  0.63742230  0.11891062  0.92316590     0.15200
C3066       C  0.62907861  0.10696285  0.86411300    -0.23700
H3067       H  0.69011173  0.24498570  0.90311869     0.05400
H3068       H  0.70158277  0.23420768  0.93714775     0.08700
H3069       H  0.66218584  0.22463071  0.93205427     0.08700
H3070       H  0.63963092  0.09338844  0.87038374     0.08700
H3071       H  0.62736032  0.10805942  0.83902619     0.08700
H3072       H  0.60502843  0.09461032  0.87265992     0.05400
C3073       C  0.60111692  0.15656149  0.79682892    -0.20400
C3074       C  0.61964431  0.15767555  0.77315333    -0.06900
C3075       C  0.61137157  0.15976186  0.74304411     0.13900
C3076       C  0.58544239  0.16181099  0.73734930    -0.20400
C3077       C  0.56656539  0.16137855  0.76086422    -0.06900
C3078       C  0.57484885  0.15837449  0.79127947     0.13900
C3079       C  0.55720952  0.15820532  0.81842079    -0.23800
H3080       H  0.60784257  0.15513533  0.82003975     0.15200
H3081       H  0.58230897  0.16640595  0.71412541     0.15200
C3082       C  0.63125500  0.16243938  0.71681210    -0.23700
H3083       H  0.56902053  0.15883521  0.84014837     0.05400
H3084       H  0.53401799  0.13667109  0.81891868     0.08700
H3085       H  0.55506213  0.17865576  0.81803322     0.08700
H3086       H  0.63147488  0.14097764  0.71497697     0.08700
H3087       H  0.65526484  0.18243839  0.72024705     0.08700
H3088       H  0.62248738  0.16590676  0.69474401     0.05400
C3089       C  0.69448745  0.11247052  0.75099564    -0.20400
C3090       C  0.70496253  0.13102097  0.77729272    -0.06900
C3091       C  0.73270444  0.13626026  0.79191829     0.13900
C3092       C  0.74884402  0.12393003  0.77951994    -0.20400
C3093       C  0.73922679  0.10706774  0.75262127    -0.06900
C3094       C  0.71127907  0.10062567  0.73847760     0.13900
C3095       C  0.69890168  0.08114599  0.71030862    -0.23800
H3096       H  0.67400963  0.10830379  0.73892562     0.15200
H3097       H  0.77011094  0.12854517  0.79048057     0.15200
C3098       C  0.74687226  0.15565350  0.82016763    -0.23700
H3099       H  0.67604379  0.07709564  0.70308607     0.05400
H3100       H  0.69599239  0.05829671  0.71476790     0.08700
H3101       H  0.71507624  0.09291421  0.69124234     0.08700
H3102       H  0.73245641  0.14374900  0.84022829     0.08700
H3103       H  0.75035904  0.17880359  0.81713058     0.08700
H3104       H  0.77002160  0.15958421  0.82576005     0.05400
C3105       C  0.72404380  0.24707195  0.75248909    -0.20400
C3106       C  0.72417546  0.23635468  0.78205651    -0.06900
C3107       C  0.74971057  0.25463888  0.80145518     0.13900
C3108       C  0.77571537  0.28143983  0.78991948    -0.20400
C3109       C  0.77772240  0.28947310  0.75891024    -0.06900
C3110       C  0.75058101  0.27346461  0.74055877     0.13900
C3111       C  0.74986092  0.28223462  0.70792958    -0.23800
H3112       H  0.70427902  0.23295375  0.73771910     0.15200
H3113       H  0.79591504  0.29443362  0.80449863     0.15200
C3114       C  0.75072616  0.24460572  0.83363263    -0.23700
H3115       H  0.72732407  0.26592188  0.69663346     0.05400
H3116       H  0.76809938  0.28187373  0.69539478     0.08700
H3117       H  0.75330783  0.30552963  0.70652694     0.08700
H3118       H  0.74740376  0.22133789  0.83405985     0.08700
H3119       H  0.73228005  0.24409884  0.84677744     0.08700
H3120       H  0.77318090  0.26076407  0.84513159     0.05400
loop_ 
_geom_bond_atom_site_label_1 
_geom_bond_atom_site_label_2 
_geom_bond_distance 
_geom_bond_site_symmetry_2 
_ccdc_geom_bond_type 
C1            C2   1.535       .  S
C1            C7   1.526       .  S
C1            C5   1.556       .  S
C1         C1530   1.544       .  S
C2            H9   1.083       .  S
C2            C3   1.368       .  D
C3            C4   1.536       .  S
C3         C1498   1.487       .  S
C4            C8   1.536       .  S
C4            C6   1.535       .  S
C4           H10   1.110       .  S
C5           H11   1.082       .  S
C5            C6   1.378       .  D
C6         C1514   1.484       .  S
C7           H12   1.088       .  S
C7            C8   1.354       .  D
C8         C1546   1.479       .  S
C13          C14   1.537       .  S
C13          C19   1.531       .  S
C13          C17   1.545       .  S
C13        C1482   1.548       .  S
C14          H21   1.081       .  S
C14          C15   1.355       .  D
C15          C16   1.550       .  S
C15        C1453   1.482       .  S
C16          C20   1.543       .  S
C16          C18   1.550       .  S
C16          H22   1.100       .  S
C17          H23   1.084       .  S
C17          C18   1.384       .  D
C18        C1466   1.517       .  S
C19          H24   1.087       .  S
C19          C20   1.362       .  D
C20        C1549   1.500       .  S
O25          C28   1.266       .  A
O25         Cd30   2.497       .  S
C26          O35   1.267       .  A
C26          O31   1.267       .  A
C26         C178   1.469       .  S
O27          C33   1.265       .  A
O27         Cd30   2.496       .  S
C28          O36   1.265       .  A
C28        C1533   1.486       .  S
C29          O34   1.268       .  A
C29          O32   1.260       .  A
C29         C472   1.468   1_545  S
Cd30         O37   2.487       .  S
Cd30         O36   2.457       .  S
Cd30         O35   2.476       .  S
Cd30         O31   2.460       .  S
Cd30         O34   2.533       .  S
Cd30         O32   2.414       .  S
C33          O37   1.265       .  A
C33          C46   1.474       .  S
O38          C41   1.266       .  A
O38         Cd43   2.493       .  S
C39          O48   1.266       .  A
C39          O44   1.265       .  A
C39         C191   1.468       .  S
O40          C46   1.264       .  A
O40         Cd43   2.500       .  S
C41          O49   1.264       .  A
C41        C1485   1.494       .  S
C42          O47   1.267       .  A
C42          O45   1.262       .  A
C42         C555   1.465   1_655  S
Cd43         O50   2.492       .  S
Cd43         O49   2.466       .  S
Cd43         O48   2.482       .  S
Cd43         O44   2.459       .  S
Cd43         O47   2.520       .  S
Cd43         O45   2.415       .  S
C46          O50   1.263       .  A
O51          C54   1.266       .  A
O51         Cd56   2.453       .  S
C52          O61   1.265       .  A
C52          O57   1.262       .  A
C52         C215   1.470       .  S
O53          C59   1.264       .  A
O53         Cd56   2.490       .  S
C54          O62   1.265       .  A
C54        C1437   1.495       .  S
C55          O60   1.267       .  A
C55          O58   1.265       .  A
C55         C529   1.471   1_545  S
Cd56         O63   2.487       .  S
Cd56         O62   2.494       .  S
Cd56         O61   2.506       .  S
Cd56         O57   2.465       .  S
Cd56         O60   2.508       .  S
Cd56         O58   2.444       .  S
C59          O63   1.263       .  A
C59          C72   1.471       .  S
O64          C67   1.264       .  A
O64         Cd69   2.469       .  S
C65          O74   1.267       .  A
C65          O70   1.265       .  A
C65         C204   1.468       .  S
O66          C72   1.262       .  A
O66         Cd69   2.485       .  S
C67          O75   1.266       .  A
C67        C1418   1.485       .  S
C68          O73   1.266       .  A
C68          O71   1.261       .  A
C68         C572   1.467       .  S
Cd69         O76   2.495       .  S
Cd69         O75   2.459       .  S
Cd69         O74   2.489       .  S
Cd69         O70   2.457       .  S
Cd69         O73   2.521       .  S
Cd69         O71   2.426       .  S
C72          O76   1.264       .  A
C77          C78   1.544       .  S
C77          C83   1.539       .  S
C77          C81   1.553       .  S
C77        C1517   1.550       .  S
C78          H85   1.086       .  S
C78          C79   1.362       .  D
C79          C80   1.538       .  S
C79        C1402   1.486       .  S
C80          C84   1.527       .  S
C80          C82   1.540       .  S
C80          H86   1.111       .  S
C81          H87   1.082       .  S
C81          C82   1.377       .  D
C82        C1434   1.491       .  S
C83          H88   1.081       .  S
C83          C84   1.353       .  D
C84        C1386   1.469       .  S
C89          C90   1.537       .  S
C89          C95   1.537       .  S
C89          C93   1.535       .  S
C89        C1421   1.540       .  S
C90          H97   1.084       .  S
C90          C91   1.365       .  D
C91          C92   1.542       .  S
C91        C1354   1.481       .  S
C92          C96   1.542       .  S
C92          C94   1.539       .  S
C92          H98   1.109       .  S
C93          H99   1.086       .  S
C93          C94   1.373       .  D
C94        C1370   1.485       .  S
C95         H100   1.087       .  S
C95          C96   1.360       .  D
C96        C1405   1.489       .  S
C101        C102   1.531       .  S
C101        C107   1.527       .  S
C101        C105   1.557       .  S
C101       C1322   1.539       .  S
C102        H109   1.079       .  S
C102        C103   1.362       .  D
C103        C104   1.541       .  S
C103       C1306   1.480       .  S
C104        C108   1.534       .  S
C104        C106   1.540       .  S
C104        H110   1.109       .  S
C105        H111   1.084       .  S
C105        C106   1.377       .  D
C106       C1373   1.494       .  S
C107        H112   1.088       .  S
C107        C108   1.354       .  D
C108       C1338   1.479       .  S
O113        C116   1.264       .  A
O113       Cd118   2.461       .  S
C114        O123   1.268       .  A
C114        O119   1.266       .  A
C114        C264   1.465       .  S
O115        C121   1.266       .  A
O115       Cd118   2.502       .  S
C116        O124   1.266       .  A
C116       C1325   1.483       .  S
C117        O122   1.270       .  A
C117        O120   1.261       .  A
C117        C459   1.473       .  S
Cd118       O125   2.478       .  S
Cd118       O124   2.452       .  S
Cd118       O123   2.476       .  S
Cd118       O119   2.440       .  S
Cd118       O122   2.544       .  S
Cd118       O120   2.422       .  S
C121        O125   1.263       .  A
C121        C134   1.474       .  S
O126        C129   1.266       .  A
O126       Cd131   2.475       .  S
C127        O136   1.267       .  A
C127        O132   1.265       .  A
C127        C277   1.473       .  S
O128        C134   1.263       .  A
O128       Cd131   2.510       .  S
C129        O137   1.265       .  A
C129       C1290   1.490       .  S
C130        O135   1.267       .  A
C130        O133   1.262       .  A
C130        C546   1.471   1_655  S
Cd131       O138   2.498       .  S
Cd131       O137   2.469       .  S
Cd131       O136   2.489       .  S
Cd131       O132   2.475       .  S
Cd131       O135   2.508       .  S
Cd131       O133   2.459       .  S
C134        O138   1.262       .  A
C139        C140   1.549       .  S
C139        C145   1.537       .  S
C139        C143   1.543       .  S
C139       C1469   1.540       .  S
C140        H147   1.086       .  S
C140        C141   1.360       .  D
C141        C142   1.534       .  S
C141       C1341   1.476       .  S
C142        C146   1.534       .  S
C142        C144   1.539       .  S
C142        H148   1.111       .  S
C143        H149   1.084       .  S
C143        C144   1.370       .  D
C144       C1293   1.491       .  S
C145        H150   1.084       .  S
C145        C146   1.363       .  D
C146       C1277   1.477       .  S
C151        C157   1.534       .  S
C151       C1712   1.527       .  S
C151       C1715   1.549       .  S
C151       C1242   1.539       .  S
C152       C1711   1.528   1_554  S
C152        H159   1.087       .  S
C152       C1713   1.355   1_554  D
C153        C154   1.538       .  S
C153       C1712   1.354       .  D
C153       C2818   1.478       .  S
C154        C158   1.543       .  S
C154        C156   1.541       .  S
C154        H160   1.105       .  S
C155       C1711   1.549   1_554  S
C155        H161   1.081       .  S
C155       C1716   1.370       .  D
C156       C1715   1.370       .  D
C156       C2786   1.479       .  S
C157        H162   1.084       .  S
C157        C158   1.372       .  D
C158       C1501   1.499       .  S
C163        C164   1.531       .  S
C163        C169   1.544       .  S
C163        C167   1.540       .  S
C163       C1210   1.548       .  S
C164        H171   1.087       .  S
C164        C165   1.370       .  D
C165        C166   1.539       .  S
C165       C1261   1.498       .  S
C166        C170   1.537       .  S
C166        C168   1.538       .  S
C166        H172   1.107       .  S
C167       H1733   1.084       .  S
C167        C168   1.370       .  D
C168       C1194   1.484       .  S
C169        H174   1.081       .  S
C169        C170   1.361       .  D
C170       C1450   1.474       .  S
H173       C1727   1.084       .  S
O175        C178   1.264       .  A
O175       Cd180   2.467       .  S
C176        O181   1.265       .  A
C176       O1745   1.265       .  A
C176       C1245   1.491       .  S
O177        C183   1.266       .  A
O177       Cd180   2.500       .  S
C178        O186   1.266       .  A
C179        O184   1.264       .  A
C179        O182   1.262       .  A
C179        C417   1.471   1_545  S
Cd180       O187   2.495       .  S
Cd180       O186   2.492       .  S
Cd180       O181   2.492       .  S
Cd180       O184   2.502       .  S
Cd180       O182   2.479       .  S
Cd180      O1745   2.430       .  S
C183        O187   1.265       .  A
C183       C1756   1.478       .  S
O185       C1736   1.266       .  A
O185      Cd1740   2.435       .  S
O188        C191   1.265       .  A
O188       Cd193   2.457       .  S
C189        O198   1.265   1_556  A
C189       O1754   1.267       .  A
C189       C1213   1.487       .  S
O190       C1756   1.263       .  A
O190      Cd1753   2.511   1_554  S
C191        O199   1.266       .  A
C192        O195   1.262   1_455  A
C192       O1757   1.268   1_455  A
C192        C309   1.472       .  S
Cd193       O200   2.501       .  S
Cd193       O199   2.480       .  S
Cd193       O194   2.467       .  S
Cd193       O195   2.440       .  S
Cd193      O1750   2.503       .  S
Cd193      O1758   2.460       .  S
Cd193      O1757   2.523       .  S
O194       C1749   1.267       .  A
C196        O200   1.263       .  A
C196       O1750   1.264       .  A
C196       C1743   1.476       .  S
O197       C1752   1.268   1_655  A
O197      Cd1753   2.521       .  S
O198      Cd1753   2.454   1_554  S
O201        C204   1.266       .  A
O201       Cd206   2.447       .  S
C202        O207   1.267       .  A
C202       O1771   1.263       .  A
C202       C1181   1.485       .  S
O203        C209   1.264       .  A
O203       Cd206   2.510       .  S
C204        O212   1.268       .  A
C205        O210   1.271       .  A
C205        O208   1.260       .  A
C205        C318   1.468       .  S
Cd206       O213   2.485       .  S
Cd206       O212   2.480       .  S
Cd206       O207   2.461       .  S
Cd206       O210   2.537       .  S
Cd206       O208   2.402       .  S
Cd206      O1771   2.436       .  S
C209        O213   1.263       .  A
C209       C1778   1.475       .  S
O211       C1762   1.264       .  A
O211      Cd1766   2.446       .  S
O214       C1777   1.265       .  A
O214       Cd219   2.496       .  S
C215        O224   1.267       .  A
C215        O220   1.266       .  A
O216       C1782   1.266       .  A
O216      Cd1779   2.529       .  S
C217        O225   1.265       .  A
C217       O1774   1.264   1_554  A
C217       C1162   1.491       .  S
C218        O221   1.263       .  A
C218       O1783   1.265       .  A
C218       C1769   1.475       .  S
Cd219       O226   2.442       .  S
Cd219       O224   2.489       .  S
Cd219       O220   2.460       .  S
Cd219       O221   2.479       .  S
Cd219      O1776   2.531       .  S
Cd219      O1785   2.487       .  S
Cd219      O1783   2.511       .  S
C222        O226   1.261       .  A
C222       O1776   1.266       .  A
C222        C368   1.470   1_545  S
O223       C1778   1.265       .  A
O223      Cd1779   2.513   1_554  S
O225      Cd1779   2.488   1_554  S
C227        C228   1.558       .  S
C227        C233   1.537       .  S
C227        C231   1.541       .  S
C227       C1229   1.543       .  S
C228       H1795   1.079       .  S
C228        C229   1.374       .  D
C229        C230   1.539       .  S
C229       C1165   1.494       .  S
C230        C234   1.532       .  S
C230        C232   1.531       .  S
C230        H236   1.111       .  S
C231       H1797   1.087       .  S
C231        C232   1.357       .  D
C232       C1149   1.478       .  S
C233        H238   1.087       .  S
C233        C234   1.363       .  D
C234       C1389   1.478       .  S
H235       C1788   1.079       .  S
H237       C1791   1.086       .  S
C239        C245   1.548       .  S
C239       C1800   1.526       .  S
C239       C1803   1.535       .  S
C239       C2738   1.534       .  S
C240       C1799   1.527   1_554  S
C240        H247   1.087       .  S
C240       C1801   1.350   1_554  D
C241        C242   1.543       .  S
C241       C1800   1.350       .  D
C241       C2706   1.476       .  S
C242        C246   1.537       .  S
C242        C244   1.551       .  S
C242        H248   1.102       .  S
C243       C1799   1.536   1_554  S
C243        H249   1.079       .  S
C243       C1804   1.374   1_554  D
C244       C1803   1.373       .  D
C244       C2690   1.504       .  S
C245        H250   1.081       .  S
C245        C246   1.367       .  D
C246       C1357   1.492       .  S
C251        C252   1.526       .  S
C251        C257   1.547       .  S
C251        C255   1.531       .  S
C251       C1101   1.538       .  S
C252        H259   1.088       .  S
C252        C253   1.359       .  D
C253        C254   1.543       .  S
C253       C1117   1.480       .  S
C254        C258   1.534       .  S
C254        C256   1.544       .  S
C254        H260   1.103       .  S
C255       H1821   1.085   1_554  S
C255        C256   1.370       .  D
C256       C1133   1.488       .  S
C257        H262   1.081       .  S
C257        C258   1.368       .  D
C258       C1309   1.487       .  S
H261       C1815   1.086       .  S
O263       C1826   1.267       .  A
O263       Cd268   2.477       .  S
C264        O273   1.266       .  A
C264        O269   1.264       .  A
O265       C1831   1.267       .  A
O265      Cd1828   2.527       .  S
C266        O274   1.265       .  A
C266       O1823   1.267       .  A
C266       C1098   1.490       .  S
C267        O270   1.263       .  A
C267       O1832   1.261       .  A
C267       C1840   1.473       .  S
Cd268       O275   2.439       .  S
Cd268       O273   2.486       .  S
Cd268       O269   2.447       .  S
Cd268       O270   2.506       .  S
Cd268      O1825   2.528       .  S
Cd268      O1834   2.453       .  S
Cd268      O1832   2.488       .  S
C271        O275   1.261       .  A
C271       O1825   1.266       .  A
C271        C430   1.468       .  S
O272       C1827   1.261       .  A
O272      Cd1828   2.494   1_554  S
O274      Cd1828   2.451       .  S
O276        C279   1.264       .  A
O276       Cd281   2.489       .  S
C277        O286   1.265       .  A
C277        O282   1.265       .  A
O278        C284   1.266       .  A
O278       Cd281   2.522       .  S
C279       O1847   1.266       .  A
C279       C1082   1.497       .  S
C280        O285   1.265       .  A
C280        O283   1.264       .  A
C280       C1827   1.474       .  S
Cd281       O288   2.435       .  S
Cd281       O286   2.490       .  S
Cd281       O282   2.480       .  S
Cd281       O285   2.492       .  S
Cd281       O283   2.496       .  S
Cd281      O1847   2.482       .  S
C284        O288   1.263       .  A
C284        C355   1.469   1_655  S
O287       C1839   1.266       .  A
O287      Cd1841   2.480       .  S
C289        C290   1.551   1_556  S
C289        C293   1.538   1_556  S
C289       C1855   1.551       .  S
C289       C1197   1.549   1_556  S
C290        H297   1.083       .  S
C290       C1851   1.373   1_554  D
C291        C292   1.530       .  S
C291       C1850   1.371       .  D
C291       C2645   1.486       .  S
C292        C296   1.530       .  S
C292        C294   1.532       .  S
C292        H298   1.111       .  S
C293        H299   1.086       .  S
C293       C1854   1.357   1_554  D
C294       C1853   1.359       .  D
C294       C2674   1.470       .  S
C295       C1849   1.551       .  S
C295        H300   1.080       .  S
C295        C296   1.365       .  D
C296       C1274   1.487       .  S
O301        C304   1.265       .  A
O301       Cd306   2.475       .  S
C302        O311   1.264       .  A
C302       O1867   1.266       .  A
C302       C1066   1.489       .  S
O303       C1869   1.267       .  A
O303      Cd1866   2.526       .  S
C304        O312   1.266       .  A
C304        C554   1.470       .  S
C305        O308   1.262       .  A
C305       O1870   1.263       .  A
C305       C1882   1.480       .  S
Cd306       O313   2.447       .  S
Cd306       O312   2.481       .  S
Cd306       O307   2.511       .  S
Cd306       O308   2.516       .  S
Cd306      O1863   2.528       .  S
Cd306      O1871   2.452       .  S
Cd306      O1870   2.516       .  S
O307       C1862   1.267       .  A
C309        O313   1.262       .  A
C309       O1863   1.267       .  A
O310       C1865   1.263       .  A
O310      Cd1866   2.509       .  S
O311      Cd1866   2.443       .  S
O314        C317   1.264       .  A
O314       Cd319   2.477       .  S
C315        O324   1.267       .  A
C315        O320   1.265       .  A
C315        C565   1.466       .  S
O316        C322   1.264       .  A
O316       Cd319   2.499       .  S
C317       O1885   1.265       .  A
C317       C1050   1.474       .  S
C318        O323   1.268       .  A
C318        O321   1.262       .  A
Cd319       O326   2.503       .  S
Cd319       O324   2.482       .  S
Cd319       O320   2.446       .  S
Cd319       O323   2.525       .  S
Cd319       O321   2.411       .  S
Cd319      O1885   2.435       .  S
C322        O326   1.264       .  A
C322       C1865   1.477   1_554  S
O325       C1877   1.265       .  A
O325      Cd1879   2.435       .  S
C327        C328   1.544       .  S
C327        C333   1.537       .  S
C327        C331   1.562   1_554  S
C327       C1018   1.548       .  S
C328       H1895   1.086   1_554  S
C328        C329   1.358       .  D
C329        C330   1.528       .  S
C329       C1034   1.470       .  S
C330        C334   1.528       .  S
C330        C332   1.534       .  S
C330        H336   1.111       .  S
C331       H1897   1.072       .  S
C331        C332   1.375   1_556  D
C332       C1069   1.489   1_554  S
C333        H338   1.087       .  S
C333        C334   1.360       .  D
C334       C1002   1.482       .  S
H335       C1888   1.087       .  S
H337       C1891   1.073       .  S
C339        C340   1.530       .  S
C339       C1905   1.527       .  S
C339       C1903   1.553       .  S
C339       C2613   1.537       .  S
C340        H347   1.085       .  S
C340        C341   1.358       .  D
C341        C342   1.529       .  S
C341        C970   1.478       .  S
C342        C346   1.539       .  S
C342        C344   1.547       .  S
C342        H348   1.107       .  S
C343       C1899   1.553   1_554  S
C343        H349   1.082       .  S
C343       C1904   1.386   1_554  D
C344       C1903   1.386       .  D
C344       C2549   1.503       .  S
C345       C1899   1.526       .  S
C345        H350   1.088   1_556  S
C345       C1906   1.354       .  D
C346       C1905   1.354       .  D
C346       C2597   1.477       .  S
O351        C354   1.268       .  A
O351       Cd356   2.484       .  S
C352        O361   1.266       .  A
C352        O357   1.266       .  A
C352        C539   1.470       .  S
O353        C359   1.264       .  A
O353       Cd356   2.476       .  S
C354       O1922   1.263       .  A
C354        C954   1.490       .  S
C355        O360   1.270       .  A
C355        O358   1.261       .  A
Cd356       O363   2.497       .  S
Cd356       O361   2.489       .  S
Cd356       O357   2.461       .  S
Cd356       O360   2.523       .  S
Cd356       O358   2.417       .  S
Cd356      O1922   2.436       .  S
C359        O363   1.267       .  A
C359       C1932   1.474       .  S
O362       C1914   1.263       .  A
O362      Cd1916   2.444       .  S
O364       C1927   1.266       .  A
O364       Cd369   2.472       .  S
C365        O374   1.264       .  A
C365        O370   1.265       .  A
C365        C528   1.468       .  S
O366       C1932   1.263       .  A
O366      Cd1929   2.494   1_554  S
C367        O375   1.267   1_556  A
C367       O1924   1.266       .  A
C367        C938   1.490       .  S
C368        O371   1.262       .  A
C368       O1933   1.267       .  A
Cd369       O376   2.496       .  S
Cd369       O374   2.484       .  S
Cd369       O370   2.462       .  S
Cd369       O371   2.432       .  S
Cd369      O1926   2.489       .  S
Cd369      O1935   2.487       .  S
Cd369      O1933   2.519       .  S
C372        O376   1.263       .  A
C372       O1926   1.263       .  A
C372       C1919   1.472       .  S
O373       C1928   1.267       .  A
O373      Cd1929   2.520       .  S
O375      Cd1929   2.494   1_554  S
C377        C378   1.540       .  S
C377        C383   1.531       .  S
C377        C381   1.556       .  S
C377        C909   1.534       .  S
C378       H1945   1.086       .  S
C378        C379   1.366       .  D
C379        C380   1.535       .  S
C379        C922   1.486       .  S
C380        C384   1.536       .  S
C380        C382   1.535       .  S
C380        H386   1.110       .  S
C381       H1947   1.081   1_554  S
C381        C382   1.372       .  D
C382        C941   1.485       .  S
C383        H388   1.087       .  S
C383        C384   1.353       .  D
C384        C890   1.472       .  S
H385       C1938   1.086       .  S
H387       C1941   1.081       .  S
C389        C390   1.548       .  S
C389       C1955   1.531       .  S
C389       C1953   1.538       .  S
C389       C2517   1.539       .  S
C390        H397   1.078       .  S
C390        C391   1.372       .  D
C391        C392   1.542       .  S
C391        C874   1.496       .  S
C392        C396   1.531       .  S
C392        C394   1.542       .  S
C392        H398   1.101       .  S
C393       C1949   1.540       .  S
C393        H399   1.085   1_556  S
C393       C1954   1.367       .  D
C394       C1953   1.366       .  D
C394       C2581   1.482       .  S
C395       C1949   1.530       .  S
C395        H400   1.089   1_556  S
C395       C1956   1.355       .  D
C396       C1955   1.354       .  D
C396       C2485   1.480       .  S
C401        C407   1.530       .  S
C401       C1962   1.537       .  S
C401       C1965   1.545       .  S
C401       C2466   1.536       .  S
C402       C1961   1.536       .  S
C402        H409   1.087       .  S
C402       C1963   1.350       .  D
C403        C404   1.548       .  S
C403       C1962   1.350       .  D
C403       C2421   1.473       .  S
C404        C408   1.541       .  S
C404        C406   1.544       .  S
C404        H410   1.109       .  S
C405       C1961   1.545   1_554  S
C405        H411   1.086       .  S
C405       C1966   1.375   1_554  D
C406       C1965   1.375       .  D
C406        C845   1.508       .  S
C407        H412   1.083       .  S
C407        C408   1.367       .  D
C408        C826   1.483       .  S
O413        C416   1.268       .  A
O413       Cd418   2.463       .  S
C414        O423   1.264       .  A
C414        O419   1.264       .  A
C414        C465   1.468       .  S
O415        C421   1.264       .  A
O415       Cd418   2.517       .  S
C416       O1984   1.266       .  A
C416        C842   1.490       .  S
C417        O422   1.264       .  A
C417        O420   1.263       .  A
Cd418       O425   2.480       .  S
Cd418       O423   2.485       .  S
Cd418       O419   2.473       .  S
Cd418       O422   2.494       .  S
Cd418       O420   2.477       .  S
Cd418      O1984   2.483       .  S
C421        O425   1.263       .  A
C421       C1994   1.475   1_554  S
O424       C1976   1.266       .  A
O424      Cd1978   2.478       .  S
O426       C1989   1.264       .  A
O426       Cd431   2.472       .  S
C427        O436   1.267       .  A
C427        O432   1.265       .  A
C427        C452   1.465       .  S
O428       C1994   1.266   1_554  A
O428      Cd1991   2.518   1_554  S
C429        O437   1.266   1_556  A
C429       O1986   1.264       .  A
C429        C813   1.483       .  S
C430        O433   1.260       .  A
C430       O1995   1.267       .  A
Cd431       O438   2.471       .  S
Cd431       O436   2.467       .  S
Cd431       O432   2.458       .  S
Cd431       O433   2.428       .  S
Cd431      O1988   2.510       .  S
Cd431      O1997   2.428       .  S
Cd431      O1995   2.519       .  S
C434        O438   1.263       .  A
C434       O1988   1.266       .  A
C434       C1981   1.473       .  S
O435       C1990   1.267       .  A
O435      Cd1991   2.524       .  S
O437      Cd1991   2.435   1_554  S
C439        C440   1.531       .  S
C439        C445   1.525       .  S
C439        C443   1.557       .  S
C439        C810   1.529       .  S
C440        H447   1.085       .  S
C440        C441   1.363       .  D
C441        C442   1.530       .  S
C441        C794   1.475       .  S
C442        C446   1.531       .  S
C442        C444   1.538       .  S
C442        H448   1.111       .  S
C443       H2009   1.079   1_554  S
C443        C444   1.378       .  D
C444        C986   1.486       .  S
C445       H2010   1.088       .  S
C445        C446   1.350       .  D
C446        C858   1.465       .  S
H449       C2003   1.079       .  S
H450       C2005   1.088       .  S
O451        C454   1.265       .  A
O451       Cd456   2.460       .  S
C452        O461   1.267       .  A
C452        O457   1.265       .  A
O453        C459   1.268       .  A
O453       Cd456   2.541       .  S
C454        O462   1.265       .  A
C454        C778   1.491       .  S
C455        O460   1.264       .  A
C455        O458   1.264       .  A
C455        C468   1.474       .  S
Cd456       O463   2.430       .  S
Cd456       O462   2.471       .  S
Cd456       O461   2.470       .  S
Cd456       O457   2.455       .  S
Cd456       O460   2.498       .  S
Cd456       O458   2.489       .  S
C459        O463   1.262       .  A
O464        C467   1.265       .  A
O464       Cd469   2.473       .  S
C465        O474   1.266       .  A
C465        O470   1.263       .  A
O466        C472   1.266       .  A
O466       Cd469   2.533       .  S
C467        O475   1.267       .  A
C467        C762   1.490       .  S
C468        O473   1.264       .  A
C468        O471   1.263       .  A
Cd469       O476   2.423       .  S
Cd469       O475   2.476       .  S
Cd469       O474   2.484       .  S
Cd469       O470   2.463       .  S
Cd469       O473   2.504       .  S
Cd469       O471   2.487       .  S
C472        O476   1.261       .  A
C477        C478   1.528       .  S
C477        C483   1.545       .  S
C477        C481   1.538       .  S
C477        C781   1.541       .  S
C478        H485   1.087       .  S
C478        C479   1.357       .  D
C479        C480   1.537       .  S
C479        C746   1.479       .  S
C480        C484   1.534       .  S
C480        C482   1.537       .  S
C480        H486   1.103       .  S
C481        H487   1.086       .  S
C481        C482   1.373       .  D
C482        C730   1.488       .  S
C483        H488   1.082       .  S
C483        C484   1.368       .  D
C484        C797   1.480       .  S
C489        C490   1.544       .  S
C489        C495   1.544       .  S
C489        C493   1.546       .  S
C489        C717   1.546       .  S
C490        H497   1.085       .  S
C490        C491   1.365       .  D
C491        C492   1.533       .  S
C491        C765   1.483       .  S
C492        C496   1.531       .  S
C492        C494   1.541       .  S
C492        H498   1.110       .  S
C493        H499   1.084       .  S
C493        C494   1.367       .  D
C494        C749   1.482       .  S
C495        H500   1.081       .  S
C495        C496   1.360       .  D
C496        C829   1.484       .  S
C501        C502   1.541       .  S
C501        C507   1.540       .  S
C501        C505   1.550       .  S
C501        C666   1.550       .  S
C502        H509   1.079       .  S
C502        C503   1.366       .  D
C503        C504   1.540       .  S
C503        C877   1.499       .  S
C504        C508   1.533       .  S
C504        C506   1.540       .  S
C504        H510   1.103       .  S
C505        H511   1.086       .  S
C505        C506   1.374       .  D
C506        C682   1.492       .  S
C507        H512   1.087       .  S
C507        C508   1.358       .  D
C508        C698   1.482       .  S
C513        C514   1.522       .  S
C513        C519   1.528       .  S
C513        C517   1.558       .  S
C513        C650   1.535       .  S
C514        H521   1.087       .  S
C514        C515   1.354       .  D
C515        C516   1.537       .  S
C515        C701   1.478       .  S
C516        C520   1.539       .  S
C516        C518   1.539       .  S
C516        H522   1.109       .  S
C517        H523   1.079       .  S
C517        C518   1.380       .  D
C518        C714   1.494       .  S
C519        H524   1.084       .  S
C519        C520   1.361       .  D
C520        C893   1.488       .  S
O525        C528   1.263       .  A
O525       Cd530   2.446       .  S
C526        O535   1.265       .  A
C526        O531   1.265       .  A
C526        C653   1.478       .  S
O527        C533   1.267       .  A
O527       Cd530   2.504       .  S
C528        O536   1.268       .  A
C529        O534   1.268       .  A
C529        O532   1.261       .  A
Cd530       O537   2.467       .  S
Cd530       O536   2.495       .  S
Cd530       O535   2.440       .  S
Cd530       O531   2.471       .  S
Cd530       O534   2.523       .  S
Cd530       O532   2.445       .  S
C533        O537   1.263       .  A
C533        C542   1.473       .  S
O538        C541   1.266       .  A
O538       Cd543   2.459       .  S
C539        O548   1.265       .  A
C539        O544   1.262       .  A
O540        C546   1.265       .  A
O540       Cd543   2.503       .  S
C541        O549   1.267       .  A
C541        C685   1.497       .  S
C542        O547   1.263       .  A
C542        O545   1.263       .  A
Cd543       O550   2.467       .  S
Cd543       O549   2.507       .  S
Cd543       O548   2.503       .  S
Cd543       O544   2.469       .  S
Cd543       O547   2.504       .  S
Cd543       O545   2.485       .  S
C546        O550   1.264       .  A
O551        C554   1.267       .  A
O551       Cd556   2.468       .  S
C552        O561   1.266       .  A
C552        O557   1.265       .  A
C552        C634   1.490       .  S
O553        C559   1.263       .  A
O553       Cd556   2.479       .  S
C554        O562   1.267       .  A
C555        O560   1.269       .  A
C555        O558   1.260       .  A
Cd556       O563   2.507       .  S
Cd556       O562   2.471       .  S
Cd556       O561   2.487       .  S
Cd556       O557   2.464       .  S
Cd556       O560   2.525       .  S
Cd556       O558   2.406       .  S
C559        O563   1.265       .  A
C559        C568   1.473       .  S
O564        C567   1.266       .  A
O564       Cd569   2.464       .  S
C565        O574   1.267       .  A
C565        O570   1.263       .  A
O566        C572   1.268       .  A
O566       Cd569   2.523       .  S
C567        O575   1.264       .  A
C567        C618   1.488       .  S
C568        O573   1.263       .  A
C568        O571   1.264       .  A
Cd569       O576   2.418       .  S
Cd569       O575   2.445       .  S
Cd569       O574   2.487       .  S
Cd569       O570   2.441       .  S
Cd569       O573   2.483       .  S
Cd569       O571   2.503       .  S
C572        O576   1.261       .  A
C577        C578   1.527       .  S
C577        C583   1.545       .  S
C577        C581   1.538       .  S
C577        C621   1.539       .  S
C578        H585   1.087       .  S
C578        C579   1.355       .  D
C579        C580   1.538       .  S
C579        C602   1.474       .  S
C580        C584   1.541       .  S
C580        C582   1.537       .  S
C580        H586   1.108       .  S
C581        H587   1.086       .  S
C581        C582   1.373       .  D
C582        C733   1.488       .  S
C583        H588   1.081       .  S
C583        C584   1.366       .  D
C584        C973   1.487       .  S
C589        C590   1.547       .  S
C589        C595   1.546       .  S
C589        C593   1.541       .  S
C589        C669   1.552       .  S
C590        H597   1.084       .  S
C590        C591   1.373       .  D
C591        C592   1.541       .  S
C591        C637   1.492       .  S
C592        C596   1.537       .  S
C592        C594   1.538       .  S
C592        H598   1.108       .  S
C593        H599   1.086       .  S
C593        C594   1.359       .  D
C594        C605   1.486       .  S
C595        H600   1.079       .  S
C595        C596   1.362       .  D
C596       C1005   1.484       .  S
C601        C602   1.398       .  A
C601        C606   1.398       .  A
C601        H608   1.084       .  S
C602        C603   1.410       .  A
C603        C610   1.506       .  S
C603        C604   1.408       .  A
C604        C605   1.404       .  A
C604        H609   1.081       .  S
C605        C606   1.413       .  A
C606        C607   1.499       .  S
C607        H611   1.111       .  S
C607        H612   1.104       .  S
C607        H613   1.109       .  S
C610        H614   1.111       .  S
C610        H615   1.110       .  S
C610        H616   1.111       .  S
C617        C618   1.406       .  A
C617        C622   1.406       .  A
C617        H624   1.084       .  S
C618        C619   1.416       .  A
C619        C626   1.509       .  S
C619        C620   1.401       .  A
C620        C621   1.408       .  A
C620        H625   1.077       .  S
C621        C622   1.423       .  A
C622        C623   1.513       .  S
C623        H627   1.111       .  S
C623        H628   1.109       .  S
C623        H629   1.105       .  S
C626        H630   1.110       .  S
C626        H631   1.110       .  S
C626        H632   1.111       .  S
C633        C634   1.406       .  A
C633        C638   1.407       .  A
C633        H640   1.084       .  S
C634        C635   1.419       .  A
C635        C642   1.508       .  S
C635        C636   1.405       .  A
C636        C637   1.403       .  A
C636        H641   1.084       .  S
C637        C638   1.416       .  A
C638        C639   1.509       .  S
C639        H643   1.111       .  S
C639        H644   1.104       .  S
C639        H645   1.110       .  S
C642        H646   1.109       .  S
C642        H647   1.111       .  S
C642        H648   1.111       .  S
C649        C650   1.410       .  A
C649        C654   1.406       .  A
C649        H656   1.078       .  S
C650        C651   1.436       .  A
C651        C658   1.521       .  S
C651        C652   1.398       .  A
C652        C653   1.395       .  A
C652        H657   1.085       .  S
C653        C654   1.412       .  A
C654        C655   1.507       .  S
C655        H659   1.111       .  S
C655        H660   1.109       .  S
C655        H661   1.110       .  S
C658        H662   1.105       .  S
C658        H663   1.105       .  S
C658        H664   1.111       .  S
C665        C666   1.417       .  A
C665        C670   1.407       .  A
C665        H672   1.072       .  S
C666        C667   1.423       .  A
C667        C674   1.513       .  S
C667        C668   1.406       .  A
C668        C669   1.412       .  A
C668        H673   1.072       .  S
C669        C670   1.421       .  A
C670        C671   1.515       .  S
C671        H675   1.111       .  S
C671        H676   1.106       .  S
C671        H677   1.107       .  S
C674        H678   1.111       .  S
C674        H679   1.098       .  S
C674        H680   1.110       .  S
C681        C682   1.402       .  A
C681        C686   1.411       .  A
C681        H688   1.084       .  S
C682        C683   1.413       .  A
C683        C690   1.502       .  S
C683        C684   1.403       .  A
C684        C685   1.406       .  A
C684        H689   1.084       .  S
C685        C686   1.422       .  A
C686        C687   1.506       .  S
C687        H691   1.111       .  S
C687        H692   1.110       .  S
C687        H693   1.110       .  S
C690        H694   1.108       .  S
C690        H695   1.106       .  S
C690        H696   1.111       .  S
C697        C698   1.402       .  A
C697        C702   1.398       .  A
C697        H704   1.086       .  S
C698        C699   1.420       .  A
C699        C706   1.508       .  S
C699        C700   1.402       .  A
C700        C701   1.398       .  A
C700        H705   1.083       .  S
C701        C702   1.414       .  A
C702        C703   1.507       .  S
C703        H707   1.111       .  S
C703        H708   1.109       .  S
C703        H709   1.110       .  S
C706        H710   1.102       .  S
C706        H711   1.109       .  S
C706        H712   1.111       .  S
C713        C714   1.406       .  A
C713        C718   1.407       .  A
C713        H720   1.084       .  S
C714        C715   1.411       .  A
C715        C722   1.508       .  S
C715        C716   1.403       .  A
C716        C717   1.415       .  A
C716        H721   1.075       .  S
C717        C718   1.423       .  A
C718        C719   1.513       .  S
C719        H723   1.111       .  S
C719        H724   1.104       .  S
C719        H725   1.108       .  S
C722        H726   1.110       .  S
C722        H727   1.108       .  S
C722        H728   1.111       .  S
C729        C730   1.399       .  A
C729        C734   1.403       .  A
C729        H736   1.084       .  S
C730        C731   1.419       .  A
C731        C738   1.504       .  S
C731        C732   1.403       .  A
C732        C733   1.400       .  A
C732        H737   1.085       .  S
C733        C734   1.419       .  A
C734        C735   1.505       .  S
C735        H739   1.111       .  S
C735        H740   1.107       .  S
C735        H741   1.106       .  S
C738        H742   1.107       .  S
C738        H743   1.106       .  S
C738        H744   1.111       .  S
C745        C746   1.404       .  A
C745        C750   1.411       .  A
C745        H752   1.084       .  S
C746        C747   1.415       .  A
C747        C754   1.510       .  S
C747        C748   1.392       .  A
C748        C749   1.397       .  A
C748        H753   1.081       .  S
C749        C750   1.416       .  A
C750        C751   1.506       .  S
C751        H755   1.111       .  S
C751        H756   1.109       .  S
C751        H757   1.107       .  S
C754        H758   1.107       .  S
C754        H759   1.111       .  S
C754        H760   1.111       .  S
C761        C762   1.406       .  A
C761        C766   1.403       .  A
C761        H768   1.084       .  S
C762        C763   1.421       .  A
C763        C770   1.508       .  S
C763        C764   1.408       .  A
C764        C765   1.401       .  A
C764        H769   1.084       .  S
C765        C766   1.409       .  A
C766        C767   1.504       .  S
C767        H771   1.111       .  S
C767        H772   1.111       .  S
C767        H773   1.106       .  S
C770        H774   1.109       .  S
C770        H775   1.111       .  S
C770        H776   1.111       .  S
C777        C778   1.404       .  A
C777        C782   1.402       .  A
C777        H784   1.084       .  S
C778        C779   1.416       .  A
C779        C786   1.508       .  S
C779        C780   1.406       .  A
C780        C781   1.411       .  A
C780        H785   1.078       .  S
C781        C782   1.424       .  A
C782        C783   1.510       .  S
C783        H787   1.111       .  S
C783        H788   1.104       .  S
C783        H789   1.110       .  S
C786        H790   1.111       .  S
C786        H791   1.109       .  S
C786        H792   1.111       .  S
C793        C794   1.401       .  A
C793        C798   1.401       .  A
C793        H800   1.080       .  S
C794        C795   1.409       .  A
C795        C802   1.510       .  S
C795        C796   1.395       .  A
C796        C797   1.406       .  A
C796        H801   1.084       .  S
C797        C798   1.414       .  A
C798        C799   1.507       .  S
C799        H803   1.110       .  S
C799        H804   1.107       .  S
C799        H805   1.106       .  S
C802        H806   1.106       .  S
C802        H807   1.110       .  S
C802        H808   1.111       .  S
C809        C810   1.410   1_556  A
C809        C814   1.408       .  A
C809        H816   1.076       .  S
C810        C811   1.432       .  A
C811        C818   1.518       .  S
C811        C812   1.394       .  A
C812        C813   1.396   1_554  A
C812        H817   1.086       .  S
C813        C814   1.415       .  A
C814        C815   1.507       .  S
C815        H819   1.111       .  S
C815        H820   1.110       .  S
C815       H2381   1.109       .  S
C818        H822   1.100       .  S
C818        H824   1.111       .  S
C818       H2383   1.111       .  S
H821       C2375   1.109       .  S
H823       C2378   1.111       .  S
C825        C826   1.405       .  A
C825        C830   1.408       .  A
C825        H832   1.080       .  S
C826        C827   1.413       .  A
C827        C834   1.508       .  S
C827        C828   1.393       .  A
C828        C829   1.403       .  A
C828        H833   1.084       .  S
C829        C830   1.413       .  A
C830        C831   1.504       .  S
C831        H835   1.108       .  S
C831        H836   1.111       .  S
C831        H837   1.106       .  S
C834        H838   1.108       .  S
C834        H839   1.111       .  S
C834        H840   1.110       .  S
C841        C842   1.399       .  A
C841        C846   1.402       .  A
C841        H848   1.085       .  S
C842       C2403   1.416       .  A
C843        C850   1.507       .  S
C843        C844   1.410       .  A
C843       C2402   1.416       .  A
C844        C845   1.410       .  A
C844        H849   1.085       .  S
C845       C2406   1.426       .  A
C846        C847   1.501       .  S
C846       C2405   1.426       .  A
C847        H851   1.110   1_554  S
C847        H853   1.111       .  S
C847       H2412   1.084   1_554  S
C850        H854   1.110       .  S
C850        H856   1.111       .  S
C850       H2415   1.110       .  S
H852       C2407   1.084       .  S
H855       C2410   1.110       .  S
C857        C862   1.401       .  A
C857       C2418   1.405       .  A
C857        H864   1.085       .  S
C858        C859   1.411       .  A
C858       C2417   1.404   1_554  A
C859        C866   1.506       .  S
C859        C860   1.394       .  A
C860        C861   1.405   1_554  A
C860        H865   1.086       .  S
C861       C1963   1.473       .  S
C861       C2422   1.406       .  A
C862        C863   1.504       .  S
C862       C2421   1.406       .  A
C863        H867   1.110       .  S
C863        H868   1.110       .  S
C863        H869   1.108       .  S
C866        H870   1.105       .  S
C866        H871   1.110       .  S
C866        H872   1.110       .  S
C873        C874   1.408       .  A
C873        C878   1.405       .  A
C873        H880   1.084       .  S
C874        C875   1.415       .  A
C875        C882   1.507       .  S
C875        C876   1.400       .  A
C876        C877   1.409       .  A
C876        H881   1.084       .  S
C877        C878   1.416       .  A
C878        C879   1.506       .  S
C879        H883   1.111       .  S
C879        H884   1.108       .  S
C879        H885   1.106       .  S
C882        H886   1.107       .  S
C882        H887   1.105       .  S
C882        H888   1.111       .  S
C889        C890   1.396       .  A
C889        C894   1.399       .  A
C889        H896   1.084       .  S
C890        C891   1.416       .  A
C891        C898   1.507       .  S
C891        C892   1.399       .  A
C892        C893   1.401       .  A
C892        H897   1.081       .  S
C893        C894   1.422       .  A
C894        C895   1.509       .  S
C895        H899   1.111       .  S
C895        H900   1.108       .  S
C895        H901   1.110       .  S
C898        H902   1.110       .  S
C898        H903   1.104       .  S
C898        H904   1.110       .  S
C905        C906   1.400       .  A
C905        C910   1.392       .  A
C905        H912   1.086       .  S
C906       C1961   1.537   1_554  S
C906       C2467   1.417   1_554  A
C907        C914   1.506       .  S
C907        C908   1.409       .  A
C907       C2466   1.417       .  A
C908       C2469   1.413       .  A
C908        H913   1.077       .  S
C909        C910   1.429       .  A
C909       C2468   1.412   1_554  A
C910        C911   1.513       .  S
C911        H915   1.111       .  S
C911        H916   1.095       .  S
C911        H917   1.110       .  S
C914        H918   1.110       .  S
C914        H919   1.108       .  S
C914        H920   1.111       .  S
C921        C926   1.404       .  A
C921       C2482   1.408       .  A
C921        H928   1.084       .  S
C922        C923   1.417       .  A
C922       C2481   1.408   1_554  A
C923        C930   1.504       .  S
C923        C924   1.395       .  A
C924        C925   1.401       .  A
C924        H929   1.085       .  S
C925       C1956   1.478   1_554  S
C925       C2486   1.411   1_554  A
C926        C927   1.507       .  S
C926       C2485   1.411       .  A
C927        H931   1.111       .  S
C927        H932   1.110       .  S
C927        H933   1.108       .  S
C930        H934   1.111       .  S
C930        H935   1.094       .  S
C930        H936   1.110       .  S
C937        C938   1.409   1_554  A
C937        C942   1.409       .  A
C937        H944   1.083       .  S
C938        C939   1.418       .  A
C939        C946   1.508       .  S
C939        C940   1.403       .  A
C940        C941   1.401   1_556  A
C940        H945   1.084       .  S
C941        C942   1.410       .  A
C942        C943   1.506       .  S
C943        H947   1.110       .  S
C943        H949   1.110       .  S
C943       H2508   1.110       .  S
C946        H950   1.109       .  S
C946        H951   1.111       .  S
C946        H952   1.111       .  S
H948       C2503   1.109       .  S
C953        C954   1.403       .  A
C953        C958   1.405       .  A
C953        H960   1.083       .  S
C954       C2515   1.417   1_554  A
C955        C962   1.510       .  S
C955        C956   1.404       .  A
C955       C2514   1.417       .  A
C956       C2517   1.410       .  A
C956        H961   1.072       .  S
C957       C1949   1.541   1_554  S
C957        C958   1.428       .  A
C957       C2516   1.410   1_554  A
C958        C959   1.513       .  S
C959        H963   1.111       .  S
C959        H964   1.108       .  S
C959        H965   1.108       .  S
C962        H966   1.110       .  S
C962        H967   1.110       .  S
C962        H968   1.111       .  S
C969        C970   1.401       .  A
C969        C974   1.402       .  A
C969        H976   1.084       .  S
C970        C971   1.411       .  A
C971        C978   1.509       .  S
C971        C972   1.396       .  A
C972        C973   1.407       .  A
C972        H977   1.085       .  S
C973        C974   1.417       .  A
C974        C975   1.504       .  S
C975        H979   1.110       .  S
C975        H980   1.111       .  S
C975        H981   1.097       .  S
C978        H982   1.111       .  S
C978        H983   1.109       .  S
C978        H984   1.110       .  S
C985        C986   1.399   1_556  A
C985        C990   1.397       .  A
C985        H992   1.084       .  S
C986        C987   1.413       .  A
C987        C994   1.507       .  S
C987        C988   1.407       .  A
C988        C989   1.411   1_554  A
C988        H993   1.082       .  S
C989       C1904   1.503       .  S
C989        C990   1.422       .  A
C990       C2551   1.503       .  S
C991       C2550   1.504       .  S
C991        H995   1.111       .  S
C991        H997   1.111       .  S
C991       H2556   1.093       .  S
C994        H998   1.110       .  S
C994        H999   1.108   1_554  S
C994       H1000   1.111       .  S
H996       C2551   1.091   1_554  S
C1001      C1002   1.402       .  A
C1001      C1006   1.407       .  A
C1001      H1008   1.080       .  S
C1002      C1003   1.413       .  A
C1003      C1010   1.508       .  S
C1003      C1004   1.399       .  A
C1004      C1005   1.404       .  A
C1004      H1009   1.085       .  S
C1005      C1006   1.411       .  A
C1006      C1007   1.502       .  S
C1007      H1011   1.111       .  S
C1007      H1012   1.109       .  S
C1007      H1013   1.108       .  S
C1010      H1014   1.109       .  S
C1010      H1015   1.110       .  S
C1010      H1016   1.110       .  S
C1017      C1018   1.417       .  A
C1017      C1022   1.398       .  A
C1017      H1024   1.085       .  S
C1018      C1019   1.429   1_554  A
C1019      C1026   1.501       .  S
C1019      C1020   1.411       .  A
C1020      C1021   1.399       .  A
C1020      H1025   1.084       .  S
C1021      C1954   1.481       .  S
C1021      C1022   1.403   1_556  A
C1022      C1023   1.507       .  S
C1023      H1027   1.111       .  S
C1023      H1028   1.111       .  S
C1023      H2589   1.107       .  S
C1026      H1030   1.110       .  S
C1026      H1032   1.111       .  S
C1026      H2591   1.109       .  S
H1029      C2583   1.107       .  S
H1031      C2586   1.108       .  S
C1033      C1038   1.398       .  A
C1033      C2594   1.399       .  A
C1033      H1040   1.080       .  S
C1034      C1035   1.405       .  A
C1034      C2593   1.398   1_554  A
C1035      C1042   1.505       .  S
C1035      C1036   1.403       .  A
C1036      C1037   1.406   1_554  A
C1036      H1041   1.080       .  S
C1037      C1906   1.476       .  S
C1037      C2598   1.413       .  A
C1038      C1039   1.507       .  S
C1038      C2597   1.413       .  A
C1039      H1043   1.110       .  S
C1039      H1044   1.106       .  S
C1039      H1045   1.110       .  S
C1042      H1046   1.105       .  S
C1042      H1047   1.110       .  S
C1042      H1048   1.111       .  S
C1049      C1054   1.394       .  A
C1049      C2610   1.393       .  A
C1049      H1056   1.084       .  S
C1050      C1051   1.411       .  A
C1050      C2609   1.392   1_554  A
C1051      C1058   1.506       .  S
C1051      C1052   1.410       .  A
C1052      C1053   1.412   1_554  A
C1052      H1057   1.078       .  S
C1053      C1899   1.535       .  S
C1053      C2614   1.436       .  A
C1054      C1055   1.520       .  S
C1054      C2613   1.435       .  A
C1055      H1059   1.111       .  S
C1055      H1060   1.104       .  S
C1055      H1061   1.104       .  S
C1058      H1062   1.110       .  S
C1058      H1063   1.109       .  S
C1058      H1064   1.111       .  S
C1065      C2626   1.409       .  A
C1065      C2630   1.412       .  A
C1065      H1072   1.084       .  S
C1066      C1067   1.417   1_556  A
C1066      C2625   1.409       .  A
C1067      C1074   1.508       .  S
C1067      C1068   1.400       .  A
C1068      C1069   1.401   1_554  A
C1068      H1073   1.085       .  S
C1069      C1070   1.416       .  A
C1070      C2631   1.508       .  S
C1070      C2625   1.411       .  A
C1071      C2630   1.508       .  S
C1071      H1075   1.111       .  S
C1071      H1077   1.109       .  S
C1071      H2636   1.107       .  S
C1074      H1078   1.111       .  S
C1074      H1079   1.110       .  S
C1074      H1080   1.111       .  S
H1076      C2631   1.107       .  S
C1081      C1086   1.404       .  A
C1081      C2642   1.407       .  A
C1081      H1088   1.084       .  S
C1082      C1083   1.423       .  A
C1082      C2641   1.408   1_554  A
C1083      C1090   1.507       .  S
C1083      C1084   1.409       .  A
C1084      C1085   1.401       .  A
C1084      H1089   1.085       .  S
C1085      C1851   1.486   1_554  S
C1085      C2646   1.412   1_554  A
C1086      C1087   1.507       .  S
C1086      C2645   1.412       .  A
C1087      H1091   1.111       .  S
C1087      H1092   1.106       .  S
C1087      H1093   1.110       .  S
C1090      H1094   1.110       .  S
C1090      H1095   1.110       .  S
C1090      H1096   1.111       .  S
C1097      C1098   1.406       .  A
C1097      C1102   1.406       .  A
C1097      H2664   1.084       .  S
C1098      C1099   1.417   1_556  A
C1099      C1106   1.509       .  S
C1099      C1100   1.402       .  A
C1100      C1101   1.409       .  A
C1100      H1105   1.078       .  S
C1101      C1102   1.423   1_554  A
C1102      C2663   1.513       .  S
C1103      C2662   1.513       .  S
C1103      H1107   1.111       .  S
C1103      H1109   1.105       .  S
C1103      H2668   1.109       .  S
H1104      C2657   1.084       .  S
C1106      H1110   1.110       .  S
C1106      H1111   1.109       .  S
C1106      H1112   1.111       .  S
H1108      C2663   1.109       .  S
C1113      C1114   1.397       .  A
C1113      C1118   1.394       .  A
C1113      H1120   1.084       .  S
C1114      C1854   1.469   1_554  S
C1114      C2675   1.408       .  A
C1115      C1122   1.508       .  S
C1115      C1116   1.402       .  A
C1115      C2674   1.408       .  A
C1116      C2677   1.402       .  A
C1116      H1121   1.074       .  S
C1117      C1118   1.417       .  A
C1117      C2676   1.402       .  A
C1118      C1119   1.509       .  S
C1119      H1123   1.110       .  S
C1119      H1124   1.111       .  S
C1119      H1125   1.108       .  S
C1122      H1126   1.109       .  S
C1122      H1127   1.108       .  S
C1122      H1128   1.111       .  S
C1129      C2690   1.406       .  A
C1129      C2694   1.398       .  A
C1129      H1136   1.078       .  S
C1130      C1804   1.502   1_554  S
C1130      C1131   1.424       .  A
C1130      C2689   1.406       .  A
C1131      C1138   1.508       .  S
C1131      C1132   1.405       .  A
C1132      C1133   1.403       .  A
C1132      H1137   1.084       .  S
C1133      C1134   1.408       .  A
C1134      C2695   1.500   1_554  S
C1134      C2689   1.396       .  A
C1135      C2694   1.500       .  S
C1135      H1139   1.111       .  S
C1135      H1141   1.110       .  S
C1135      H2700   1.105       .  S
C1138      H1142   1.108       .  S
C1138      H1143   1.110   1_554  S
C1138      H1144   1.111       .  S
H1140      C2695   1.105   1_554  S
C1145      C2706   1.400       .  A
C1145      C2710   1.398       .  A
C1145      H1152   1.080       .  S
C1146      C1801   1.474   1_554  S
C1146      C1147   1.414       .  A
C1146      C2705   1.398   1_554  A
C1147      C1154   1.506       .  S
C1147      C1148   1.403       .  A
C1148      C1149   1.400       .  A
C1148      H1153   1.078       .  S
C1149      C1150   1.409   1_554  A
C1150      C2711   1.499       .  S
C1150      C2705   1.396       .  A
C1151      C2710   1.500       .  S
C1151      H1155   1.111       .  S
C1151      H1157   1.109       .  S
C1151      H2716   1.106       .  S
C1154      H1158   1.109       .  S
C1154      H1159   1.103       .  S
C1154      H1160   1.111       .  S
H1156      C2711   1.105       .  S
C1161      C1162   1.407   1_556  A
C1161      C1166   1.408   1_556  A
C1161      H2728   1.084       .  S
C1162      C1163   1.416       .  A
C1163      C1170   1.508       .  S
C1163      C1164   1.403       .  A
C1164      C1165   1.404       .  A
C1164      H1169   1.081       .  S
C1165      C1166   1.418       .  A
C1166      C2727   1.509   1_554  S
C1167      C2726   1.509       .  S
C1167      H1171   1.110       .  S
C1167      H1173   1.106       .  S
C1167      H2732   1.109       .  S
H1168      C2721   1.084       .  S
C1170      H1174   1.109       .  S
C1170      H1175   1.111       .  S
C1170      H1176   1.111       .  S
H1172      C2727   1.108       .  S
C1177      C1182   1.403       .  A
C1177      C2738   1.409       .  A
C1177      H1184   1.077       .  S
C1178      C1799   1.535   1_554  S
C1178      C1179   1.425       .  A
C1178      C2737   1.408   1_554  A
C1179      C1186   1.511       .  S
C1179      C1180   1.400       .  A
C1180      C1181   1.402       .  A
C1180      H1185   1.084       .  S
C1181      C2742   1.417       .  A
C1182      C1183   1.509       .  S
C1182      C2741   1.416       .  A
C1183      H1187   1.111       .  S
C1183      H1188   1.111       .  S
C1183      H1189   1.109       .  S
C1186      H1190   1.102       .  S
C1186      H1191   1.111       .  S
C1186      H1192   1.110       .  S
C1193      C1194   1.399       .  A
C1193      C1198   1.409       .  A
C1193      H1200   1.084       .  S
C1194      C1195   1.406   1_554  A
C1195      C1202   1.509       .  S
C1195      C1196   1.400       .  A
C1196      C1197   1.416   1_556  A
C1196      H1201   1.072       .  S
C1197      C1198   1.431       .  A
C1198      C2759   1.513       .  S
C1199      C2758   1.514       .  S
C1199      H1203   1.111       .  S
C1199      H1205   1.107       .  S
C1199      H2764   1.105       .  S
C1202      H1206   1.111       .  S
C1202      H1207   1.111       .  S
C1202      H1208   1.106       .  S
H1204      C2759   1.106       .  S
C1209      C1210   1.412       .  A
C1209      C1214   1.403       .  A
C1209      H1216   1.077       .  S
C1210      C2771   1.429   1_554  A
C1211      C1218   1.512       .  S
C1211      C1212   1.406       .  A
C1211      C2770   1.429       .  A
C1212      C2773   1.401       .  A
C1212      H1217   1.084       .  S
C1213      C1214   1.414   1_556  A
C1213      C2772   1.401       .  A
C1214      C1215   1.509       .  S
C1215      H1219   1.111       .  S
C1215      H1220   1.110       .  S
C1215      H1221   1.110       .  S
C1218      H1222   1.105       .  S
C1218      H1223   1.105       .  S
C1218      H1224   1.111       .  S
C1225      C1226   1.391       .  A
C1225      C1230   1.400       .  A
C1225      H1232   1.085       .  S
C1226      C1716   1.478       .  S
C1226      C2787   1.408       .  A
C1227      C1234   1.508       .  S
C1227      C1228   1.407       .  A
C1227      C2786   1.408       .  A
C1228      C2789   1.415       .  A
C1228      H1233   1.075       .  S
C1229      C1230   1.434       .  A
C1229      C2788   1.415       .  A
C1230      C1231   1.511       .  S
C1231      H1235   1.111       .  S
C1231      H1236   1.111       .  S
C1231      H1237   1.096       .  S
C1234      H1238   1.109       .  S
C1234      H1239   1.111       .  S
C1234      H1240   1.111       .  S
C1241      C1246   1.410       .  A
C1241      C2802   1.412       .  A
C1241      H1248   1.076       .  S
C1242      C1243   1.433       .  A
C1242      C2801   1.412       .  A
C1243      C1250   1.517       .  S
C1243      C1244   1.398       .  A
C1244      C2805   1.397       .  A
C1244      H1249   1.084       .  S
C1245      C1246   1.416       .  A
C1245      C2804   1.399       .  A
C1246      C1247   1.508       .  S
C1247      H1251   1.111       .  S
C1247      H1252   1.110       .  S
C1247      H1253   1.110       .  S
C1250      H1254   1.101       .  S
C1250      H1255   1.105       .  S
C1250      H1256   1.111       .  S
C1257      C1258   1.402   1_554  A
C1257      C1262   1.410       .  A
C1257      H1264   1.084       .  S
C1258      C1713   1.476       .  S
C1258      C2819   1.415       .  A
C1259      C1266   1.509       .  S
C1259      C1260   1.394       .  A
C1259      C2818   1.415       .  A
C1260      C2821   1.404       .  A
C1260      H1265   1.085       .  S
C1261      C1262   1.418       .  A
C1261      C2820   1.405   1_554  A
C1262      C1263   1.505       .  S
C1263      H1267   1.111       .  S
C1263      H1268   1.110       .  S
C1263      H1269   1.102       .  S
C1266      H1270   1.106       .  S
C1266      H1271   1.111       .  S
C1266      H1272   1.110       .  S
C1273      C1274   1.402       .  A
C1273      C1278   1.397       .  A
C1273      H1280   1.085       .  S
C1274      C1275   1.419       .  A
C1275      C1282   1.503       .  S
C1275      C1276   1.407       .  A
C1276      C1277   1.400       .  A
C1276      H1281   1.085       .  S
C1277      C1278   1.412       .  A
C1278      C1279   1.507       .  S
C1279      H1283   1.111       .  S
C1279      H1284   1.107       .  S
C1279      H1285   1.110       .  S
C1282      H1286   1.110       .  S
C1282      H1287   1.100       .  S
C1282      H1288   1.110       .  S
C1289      C1290   1.406       .  A
C1289      C1294   1.406       .  A
C1289      H1296   1.085       .  S
C1290      C1291   1.418       .  A
C1291      C1298   1.508       .  S
C1291      C1292   1.404       .  A
C1292      C1293   1.403       .  A
C1292      H1297   1.086       .  S
C1293      C1294   1.417       .  A
C1294      C1295   1.508       .  S
C1295      H1299   1.111       .  S
C1295      H1300   1.107       .  S
C1295      H1301   1.108       .  S
C1298      H1302   1.110       .  S
C1298      H1303   1.110       .  S
C1298      H1304   1.111       .  S
C1305      C1306   1.400       .  A
C1305      C1310   1.404       .  A
C1305      H1312   1.082       .  S
C1306      C1307   1.417       .  A
C1307      C1314   1.510       .  S
C1307      C1308   1.396       .  A
C1308      C1309   1.403       .  A
C1308      H1313   1.085       .  S
C1309      C1310   1.417       .  A
C1310      C1311   1.505       .  S
C1311      H1315   1.111       .  S
C1311      H1316   1.104       .  S
C1311      H1317   1.107       .  S
C1314      H1318   1.110       .  S
C1314      H1319   1.106       .  S
C1314      H1320   1.111       .  S
C1321      C1322   1.411       .  A
C1321      C1326   1.406       .  A
C1321      H1328   1.079       .  S
C1322      C1323   1.436       .  A
C1323      C1330   1.514       .  S
C1323      C1324   1.400       .  A
C1324      C1325   1.396       .  A
C1324      H1329   1.085       .  S
C1325      C1326   1.413       .  A
C1326      C1327   1.508       .  S
C1327      H1331   1.111       .  S
C1327      H1332   1.110       .  S
C1327      H1333   1.109       .  S
C1330      H1334   1.107       .  S
C1330      H1335   1.106       .  S
C1330      H1336   1.111       .  S
C1337      C1338   1.405       .  A
C1337      C1342   1.408       .  A
C1337      H1344   1.084       .  S
C1338      C1339   1.412       .  A
C1339      C1346   1.507       .  S
C1339      C1340   1.397       .  A
C1340      C1341   1.398       .  A
C1340      H1345   1.082       .  S
C1341      C1342   1.413       .  A
C1342      C1343   1.506       .  S
C1343      H1347   1.110       .  S
C1343      H1348   1.110       .  S
C1343      H1349   1.109       .  S
C1346      H1350   1.106       .  S
C1346      H1351   1.108       .  S
C1346      H1352   1.111       .  S
C1353      C1354   1.395       .  A
C1353      C1358   1.402       .  A
C1353      H1360   1.078       .  S
C1354      C1355   1.415       .  A
C1355      C1362   1.508       .  S
C1355      C1356   1.401       .  A
C1356      C1357   1.406       .  A
C1356      H1361   1.085       .  S
C1357      C1358   1.417       .  A
C1358      C1359   1.502       .  S
C1359      H1363   1.111       .  S
C1359      H1364   1.102       .  S
C1359      H1365   1.105       .  S
C1362      H1366   1.106       .  S
C1362      H1367   1.110       .  S
C1362      H1368   1.111       .  S
C1369      C1370   1.396       .  A
C1369      C1374   1.398       .  A
C1369      H1376   1.084       .  S
C1370      C1371   1.415       .  A
C1371      C1378   1.506       .  S
C1371      C1372   1.410       .  A
C1372      C1373   1.406       .  A
C1372      H1377   1.085       .  S
C1373      C1374   1.420       .  A
C1374      C1375   1.504       .  S
C1375      H1379   1.111       .  S
C1375      H1380   1.104       .  S
C1375      H1381   1.102       .  S
C1378      H1382   1.107       .  S
C1378      H1383   1.109       .  S
C1378      H1384   1.111       .  S
C1385      C1386   1.398       .  A
C1385      C1390   1.397       .  A
C1385      H1392   1.083       .  S
C1386      C1387   1.409       .  A
C1387      C1394   1.507       .  S
C1387      C1388   1.405       .  A
C1388      C1389   1.404       .  A
C1388      H1393   1.081       .  S
C1389      C1390   1.413       .  A
C1390      C1391   1.504       .  S
C1391      H1395   1.111       .  S
C1391      H1396   1.102       .  S
C1391      H1397   1.110       .  S
C1394      H1398   1.110       .  S
C1394      H1399   1.110       .  S
C1394      H1400   1.110       .  S
C1401      C1402   1.400       .  A
C1401      C1406   1.400       .  A
C1401      H1408   1.083       .  S
C1402      C1403   1.416       .  A
C1403      C1410   1.507       .  S
C1403      C1404   1.409       .  A
C1404      C1405   1.403       .  A
C1404      H1409   1.078       .  S
C1405      C1406   1.414       .  A
C1406      C1407   1.509       .  S
C1407      H1411   1.111       .  S
C1407      H1412   1.111       .  S
C1407      H1413   1.107       .  S
C1410      H1414   1.109       .  S
C1410      H1415   1.106       .  S
C1410      H1416   1.111       .  S
C1417      C1418   1.404       .  A
C1417      C1422   1.402       .  A
C1417      H1424   1.084       .  S
C1418      C1419   1.416       .  A
C1419      C1426   1.508       .  S
C1419      C1420   1.405       .  A
C1420      C1421   1.411       .  A
C1420      H1425   1.084       .  S
C1421      C1422   1.418       .  A
C1422      C1423   1.506       .  S
C1423      H1427   1.111       .  S
C1423      H1428   1.107       .  S
C1423      H1429   1.110       .  S
C1426      H1430   1.110       .  S
C1426      H1431   1.110       .  S
C1426      H1432   1.111       .  S
C1433      C1434   1.404       .  A
C1433      C1438   1.412       .  A
C1433      H1440   1.084       .  S
C1434      C1435   1.413       .  A
C1435      C1442   1.502       .  S
C1435      C1436   1.400       .  A
C1436      C1437   1.404       .  A
C1436      H1441   1.084       .  S
C1437      C1438   1.422       .  A
C1438      C1439   1.507       .  S
C1439      H1443   1.111       .  S
C1439      H1444   1.110       .  S
C1439      H1445   1.111       .  S
C1442      H1446   1.105       .  S
C1442      H1447   1.105       .  S
C1442      H1448   1.111       .  S
C1449      C1450   1.397       .  A
C1449      C1454   1.400       .  A
C1449      H1456   1.084       .  S
C1450      C1451   1.413       .  A
C1451      C1458   1.511       .  S
C1451      C1452   1.404       .  A
C1452      C1453   1.404       .  A
C1452      H1457   1.081       .  S
C1453      C1454   1.420       .  A
C1454      C1455   1.510       .  S
C1455      H1459   1.110       .  S
C1455      H1460   1.111       .  S
C1455      H1461   1.105       .  S
C1458      H1462   1.109       .  S
C1458      H1463   1.105       .  S
C1458      H1464   1.111       .  S
C1465      C1466   1.412       .  A
C1465      C1470   1.408       .  A
C1465      H1472   1.082       .  S
C1466      C1467   1.429       .  A
C1467      C1474   1.505       .  S
C1467      C1468   1.401       .  A
C1468      C1469   1.402       .  A
C1468      H1473   1.083       .  S
C1469      C1470   1.420       .  A
C1470      C1471   1.508       .  S
C1471      H1475   1.111       .  S
C1471      H1476   1.110       .  S
C1471      H1477   1.107       .  S
C1474      H1478   1.110       .  S
C1474      H1479   1.090       .  S
C1474      H1480   1.111       .  S
C1481      C1482   1.412       .  A
C1481      C1486   1.404       .  A
C1481      H1488   1.075       .  S
C1482      C1483   1.422       .  A
C1483      C1490   1.511       .  S
C1483      C1484   1.409       .  A
C1484      C1485   1.407       .  A
C1484      H1489   1.085       .  S
C1485      C1486   1.416       .  A
C1486      C1487   1.509       .  S
C1487      H1491   1.111       .  S
C1487      H1492   1.110       .  S
C1487      H1493   1.110       .  S
C1490      H1494   1.105       .  S
C1490      H1495   1.109       .  S
C1490      H1496   1.111       .  S
C1497      C1498   1.400       .  A
C1497      C1502   1.406       .  A
C1497      H1504   1.080       .  S
C1498      C1499   1.414       .  A
C1499      C1506   1.508       .  S
C1499      C1500   1.398       .  A
C1500      C1501   1.407       .  A
C1500      H1505   1.085       .  S
C1501      C1502   1.421       .  A
C1502      C1503   1.505       .  S
C1503      H1507   1.111       .  S
C1503      H1508   1.100       .  S
C1503      H1509   1.109       .  S
C1506      H1510   1.110       .  S
C1506      H1511   1.109       .  S
C1506      H1512   1.111       .  S
C1513      C1514   1.403       .  A
C1513      C1518   1.408       .  A
C1513      H1520   1.084       .  S
C1514      C1515   1.402       .  A
C1515      C1522   1.510       .  S
C1515      C1516   1.401       .  A
C1516      C1517   1.423       .  A
C1516      H1521   1.073       .  S
C1517      C1518   1.425       .  A
C1518      C1519   1.509       .  S
C1519      H1523   1.111       .  S
C1519      H1524   1.107       .  S
C1519      H1525   1.108       .  S
C1522      H1526   1.108       .  S
C1522      H1527   1.110       .  S
C1522      H1528   1.111       .  S
C1529      C1530   1.414       .  A
C1529      C1534   1.411       .  A
C1529      H1536   1.078       .  S
C1530      C1531   1.434       .  A
C1531      C1538   1.516       .  S
C1531      C1532   1.401       .  A
C1532      C1533   1.396       .  A
C1532      H1537   1.085       .  S
C1533      C1534   1.413       .  A
C1534      C1535   1.507       .  S
C1535      H1539   1.111       .  S
C1535      H1540   1.110       .  S
C1535      H1541   1.109       .  S
C1538      H1542   1.106       .  S
C1538      H1543   1.105       .  S
C1538      H1544   1.111       .  S
C1545      C1546   1.402       .  A
C1545      C1550   1.408       .  A
C1545      H1552   1.085       .  S
C1546      C1547   1.409       .  A
C1547      C1554   1.506       .  S
C1547      C1548   1.402       .  A
C1548      C1549   1.408       .  A
C1548      H1553   1.083       .  S
C1549      C1550   1.418       .  A
C1550      C1551   1.502       .  S
C1551      H1555   1.111       .  S
C1551      H1556   1.102       .  S
C1551      H1557   1.108       .  S
C1554      H1558   1.109       .  S
C1554      H1559   1.105       .  S
C1554      H1560   1.110       .  S
C1561      C1562   1.535       .  S
C1561      C1567   1.527       .  S
C1561      C1565   1.555       .  S
C1561      C3090   1.545       .  S
C1562      H1569   1.082       .  S
C1562      C1563   1.368       .  D
C1563      C1564   1.535       .  S
C1563      C3058   1.486       .  S
C1564      C1568   1.537       .  S
C1564      C1566   1.534       .  S
C1564      H1570   1.110       .  S
C1565      H1571   1.082       .  S
C1565      C1566   1.378       .  D
C1566      C3074   1.483       .  S
C1567      H1572   1.087       .  S
C1567      C1568   1.355       .  D
C1568      C3106   1.480       .  S
C1573      C1574   1.535       .  S
C1573      C1579   1.530       .  S
C1573      C1577   1.543       .  S
C1573      C3042   1.546       .  S
C1574      H1581   1.080       .  S
C1574      C1575   1.357       .  D
C1575      C1576   1.549       .  S
C1575      C3013   1.477       .  S
C1576      C1580   1.543       .  S
C1576      C1578   1.549       .  S
C1576      H1582   1.102       .  S
C1577      H1583   1.083       .  S
C1577      C1578   1.383       .  D
C1578      C3026   1.513       .  S
C1579      H1584   1.087       .  S
C1579      C1580   1.362       .  D
C1580      C3109   1.500       .  S
O1585      C1588   1.266       .  A
O1585     Cd1590   2.502       .  S
C1586      O1595   1.266       .  A
C1586      O1591   1.267       .  A
C1586      C1738   1.468       .  S
O1587      C1593   1.266       .  A
O1587     Cd1590   2.503       .  S
C1588      O1596   1.266       .  A
C1588      C3093   1.488       .  S
C1589      O1594   1.268       .  A
C1589      O1592   1.260       .  A
C1589      C2032   1.470   1_545  S
Cd1590     O1597   2.489       .  S
Cd1590     O1596   2.457       .  S
Cd1590     O1595   2.479       .  S
Cd1590     O1591   2.454       .  S
Cd1590     O1594   2.536       .  S
Cd1590     O1592   2.421       .  S
C1593      O1597   1.265       .  A
C1593      C1606   1.475       .  S
O1598      C1601   1.267       .  A
O1598     Cd1603   2.494       .  S
C1599      O1608   1.266       .  A
C1599      O1604   1.265       .  A
C1599      C1751   1.470       .  S
O1600      C1606   1.264       .  A
O1600     Cd1603   2.503       .  S
C1601      O1609   1.264       .  A
C1601      C3045   1.496       .  S
C1602      O1607   1.267       .  A
C1602      O1605   1.262       .  A
C1602      C2115   1.465   1_655  S
Cd1603     O1610   2.496       .  S
Cd1603     O1609   2.470       .  S
Cd1603     O1608   2.489       .  S
Cd1603     O1604   2.467       .  S
Cd1603     O1607   2.512       .  S
Cd1603     O1605   2.420       .  S
C1606      O1610   1.263       .  A
O1611      C1614   1.266       .  A
O1611     Cd1616   2.449       .  S
C1612      O1621   1.265       .  A
C1612      O1617   1.262       .  A
C1612      C1775   1.469       .  S
O1613      C1619   1.263       .  A
O1613     Cd1616   2.488       .  S
C1614      O1622   1.266       .  A
C1614      C2997   1.496       .  S
C1615      O1620   1.267       .  A
C1615      O1618   1.265       .  A
C1615      C2089   1.470   1_545  S
Cd1616     O1623   2.487       .  S
Cd1616     O1622   2.501       .  S
Cd1616     O1621   2.504       .  S
Cd1616     O1617   2.467       .  S
Cd1616     O1620   2.506       .  S
Cd1616     O1618   2.441       .  S
C1619      O1623   1.263       .  A
C1619      C1632   1.470       .  S
O1624      C1627   1.264       .  A
O1624     Cd1629   2.464       .  S
C1625      O1634   1.267       .  A
C1625      O1630   1.265       .  A
C1625      C1764   1.468       .  S
O1626      C1632   1.262       .  A
O1626     Cd1629   2.482       .  S
C1627      O1635   1.266       .  A
C1627      C2978   1.482       .  S
C1628      O1633   1.266       .  A
C1628      O1631   1.261       .  A
C1628      C2132   1.466       .  S
Cd1629     O1636   2.493       .  S
Cd1629     O1635   2.448       .  S
Cd1629     O1634   2.486       .  S
Cd1629     O1630   2.457       .  S
Cd1629     O1633   2.516       .  S
Cd1629     O1631   2.427       .  S
C1632      O1636   1.264       .  A
C1637      C1638   1.545       .  S
C1637      C1643   1.539       .  S
C1637      C1641   1.552       .  S
C1637      C3077   1.549       .  S
C1638      H1645   1.085       .  S
C1638      C1639   1.362       .  D
C1639      C1640   1.539       .  S
C1639      C2962   1.487       .  S
C1640      C1644   1.528       .  S
C1640      C1642   1.541       .  S
C1640      H1646   1.111       .  S
C1641      H1647   1.083       .  S
C1641      C1642   1.376       .  D
C1642      C2994   1.492       .  S
C1643      H1648   1.081       .  S
C1643      C1644   1.352       .  D
C1644      C2946   1.471       .  S
C1649      C1650   1.537       .  S
C1649      C1655   1.536       .  S
C1649      C1653   1.534       .  S
C1649      C2981   1.537       .  S
C1650      H1657   1.083       .  S
C1650      C1651   1.364       .  D
C1651      C1652   1.543       .  S
C1651      C2914   1.481       .  S
C1652      C1656   1.541       .  S
C1652      C1654   1.541       .  S
C1652      H1658   1.108       .  S
C1653      H1659   1.086       .  S
C1653      C1654   1.373       .  D
C1654      C2930   1.487       .  S
C1655      H1660   1.086       .  S
C1655      C1656   1.360       .  D
C1656      C2965   1.487       .  S
C1661      C1662   1.534       .  S
C1661      C1667   1.527       .  S
C1661      C1665   1.556       .  S
C1661      C2882   1.541       .  S
C1662      H1669   1.079       .  S
C1662      C1663   1.364       .  D
C1663      C1664   1.539       .  S
C1663      C2866   1.482       .  S
C1664      C1668   1.534       .  S
C1664      C1666   1.539       .  S
C1664      H1670   1.109       .  S
C1665      H1671   1.083       .  S
C1665      C1666   1.377       .  D
C1666      C2933   1.493       .  S
C1667      H1672   1.087       .  S
C1667      C1668   1.354       .  D
C1668      C2898   1.476       .  S
O1673      C1676   1.265       .  A
O1673     Cd1678   2.466       .  S
C1674      O1683   1.268       .  A
C1674      O1679   1.266       .  A
C1674      C1824   1.468       .  S
O1675      C1681   1.265       .  A
O1675     Cd1678   2.497       .  S
C1676      O1684   1.265       .  A
C1676      C2885   1.483       .  S
C1677      O1682   1.270       .  A
C1677      O1680   1.260       .  A
C1677      C2019   1.474       .  S
Cd1678     O1685   2.496       .  S
Cd1678     O1684   2.450       .  S
Cd1678     O1683   2.476       .  S
Cd1678     O1679   2.452       .  S
Cd1678     O1682   2.549       .  S
Cd1678     O1680   2.421       .  S
C1681      O1685   1.263       .  A
C1681      C1694   1.475       .  S
O1686      C1689   1.265       .  A
O1686     Cd1691   2.478       .  S
C1687      O1696   1.267       .  A
C1687      O1692   1.265       .  A
C1687      C1837   1.472       .  S
O1688      C1694   1.263       .  A
O1688     Cd1691   2.500       .  S
C1689      O1697   1.264       .  A
C1689      C2850   1.492       .  S
C1690      O1695   1.266       .  A
C1690      O1693   1.262       .  A
C1690      C2106   1.470   1_655  S
Cd1691     O1698   2.507       .  S
Cd1691     O1697   2.465       .  S
Cd1691     O1696   2.486       .  S
Cd1691     O1692   2.472       .  S
Cd1691     O1695   2.503       .  S
Cd1691     O1693   2.460       .  S
C1694      O1698   1.263       .  A
C1699      C1700   1.547       .  S
C1699      C1705   1.537       .  S
C1699      C1703   1.542       .  S
C1699      C3029   1.536       .  S
C1700      H1707   1.086       .  S
C1700      C1701   1.358       .  D
C1701      C1702   1.533       .  S
C1701      C2901   1.473       .  S
C1702      C1706   1.533       .  S
C1702      C1704   1.539       .  S
C1702      H1708   1.111       .  S
C1703      H1709   1.084       .  S
C1703      C1704   1.369       .  D
C1704      C2853   1.489       .  S
C1705      H1710   1.084       .  S
C1705      C1706   1.362       .  D
C1706      C2837   1.476       .  S
C1711      C1717   1.534       .  S
C1711      C2802   1.541   1_556  S
C1712      H1719   1.088       .  S
C1713      C1714   1.537       .  S
C1714      C1718   1.541       .  S
C1714      C1716   1.540   1_556  S
C1714      H1720   1.105       .  S
C1715      H1721   1.082       .  S
C1717      H1722   1.084       .  S
C1717      C1718   1.372       .  D
C1718      C3061   1.498       .  S
C1723      C1724   1.530       .  S
C1723      C1729   1.541       .  S
C1723      C1727   1.543       .  S
C1723      C2770   1.548       .  S
C1724      H1731   1.087       .  S
C1724      C1725   1.369       .  D
C1725      C1726   1.538       .  S
C1725      C2821   1.498       .  S
C1726      C1730   1.537       .  S
C1726      C1728   1.540       .  S
C1726      H1732   1.107       .  S
C1727      C1728   1.372       .  D
C1728      C2754   1.490       .  S
C1729      H1734   1.081       .  S
C1729      C1730   1.360       .  D
C1730      C3010   1.470       .  S
O1735      C1738   1.262       .  A
O1735     Cd1740   2.461       .  S
C1736      O1741   1.265       .  A
C1736      C2805   1.484       .  S
O1737      C1743   1.266       .  A
O1737     Cd1740   2.489       .  S
C1738      O1746   1.266       .  A
C1739      O1744   1.265       .  A
C1739      O1742   1.262       .  A
C1739      C1977   1.471   1_545  S
Cd1740     O1747   2.490       .  S
Cd1740     O1746   2.498       .  S
Cd1740     O1741   2.480       .  S
Cd1740     O1744   2.502       .  S
Cd1740     O1742   2.476       .  S
C1743      O1747   1.265       .  A
O1748      C1751   1.265       .  A
O1748     Cd1753   2.463       .  S
C1749      O1758   1.265       .  A
C1749      C2773   1.488       .  S
C1751      O1759   1.267       .  A
C1752      O1755   1.262   1_455  A
C1752      C1869   1.470       .  S
Cd1753     O1760   2.509       .  S
Cd1753     O1759   2.488       .  S
Cd1753     O1754   2.470       .  S
Cd1753     O1755   2.434       .  S
C1756      O1760   1.264   1_554  A
O1761      C1764   1.266       .  A
O1761     Cd1766   2.448       .  S
C1762      O1767   1.267       .  A
C1762      C2741   1.484       .  S
O1763      C1769   1.264       .  A
O1763     Cd1766   2.509       .  S
C1764      O1772   1.268       .  A
C1765      O1770   1.270       .  A
C1765      O1768   1.260       .  A
C1765      C1878   1.470       .  S
Cd1766     O1773   2.487       .  S
Cd1766     O1772   2.479       .  S
Cd1766     O1767   2.459       .  S
Cd1766     O1770   2.545       .  S
Cd1766     O1768   2.406       .  S
C1769      O1773   1.263       .  A
O1774     Cd1779   2.488       .  S
C1775      O1784   1.267       .  A
C1775      O1780   1.265       .  A
C1777      O1785   1.265       .  A
C1777      C2722   1.493       .  S
C1778      O1781   1.263   1_554  A
Cd1779     O1786   2.446       .  S
Cd1779     O1784   2.485       .  S
Cd1779     O1780   2.456       .  S
Cd1779     O1781   2.481       .  S
C1782      O1786   1.261       .  A
C1782      C1928   1.471   1_545  S
C1787      C1788   1.559       .  S
C1787      C1793   1.537       .  S
C1787      C1791   1.541       .  S
C1787      C2789   1.544       .  S
C1788      C1789   1.374       .  D
C1789      C1790   1.540       .  S
C1789      C2725   1.495       .  S
C1790      C1794   1.534       .  S
C1790      C1792   1.532       .  S
C1790      H1796   1.111       .  S
C1791      C1792   1.358       .  D
C1792      C2709   1.478       .  S
C1793      H1798   1.087       .  S
C1793      C1794   1.363       .  D
C1794      C2949   1.481       .  S
C1799      C1805   1.548       .  S
C1800      H1807   1.087       .  S
C1801      C1802   1.541       .  S
C1802      C1806   1.536       .  S
C1802      C1804   1.551       .  S
C1802      H1808   1.104       .  S
C1803      H1809   1.078       .  S
C1805      H1810   1.080       .  S
C1805      C1806   1.364       .  D
C1806      C2917   1.491       .  S
C1811      C1812   1.527       .  S
C1811      C1817   1.546       .  S
C1811      C1815   1.533       .  S
C1811      C2661   1.541       .  S
C1812      H1819   1.087       .  S
C1812      C1813   1.360       .  D
C1813      C1814   1.544       .  S
C1813      C2677   1.481       .  S
C1814      C1818   1.535       .  S
C1814      C1816   1.544       .  S
C1814      H1820   1.103       .  S
C1815      C1816   1.372       .  D
C1816      C2693   1.490       .  S
C1817      H1822   1.081       .  S
C1817      C1818   1.367       .  D
C1818      C2869   1.489       .  S
O1823     Cd1828   2.475       .  S
C1824      O1833   1.266       .  A
C1824      O1829   1.265       .  A
C1826      O1834   1.265       .  A
C1826      C2658   1.492       .  S
C1827      O1830   1.264   1_554  A
Cd1828     O1835   2.434       .  S
Cd1828     O1833   2.482       .  S
Cd1828     O1829   2.461       .  S
Cd1828     O1830   2.505       .  S
C1831      O1835   1.261       .  A
C1831      C1990   1.469       .  S
O1836      C1839   1.264       .  A
O1836     Cd1841   2.491       .  S
C1837      O1846   1.265       .  A
C1837      O1842   1.266       .  A
O1838      C1844   1.266       .  A
O1838     Cd1841   2.522       .  S
C1839      C2642   1.497       .  S
C1840      O1845   1.264       .  A
C1840      O1843   1.264       .  A
Cd1841     O1848   2.429       .  S
Cd1841     O1846   2.485       .  S
Cd1841     O1842   2.476       .  S
Cd1841     O1845   2.484       .  S
Cd1841     O1843   2.500       .  S
C1844      O1848   1.262       .  A
C1844      C1915   1.467   1_655  S
C1849      C1850   1.550       .  S
C1849      C1853   1.540       .  S
C1849      C2757   1.550       .  S
C1850      H1857   1.085       .  S
C1851      C1852   1.531       .  S
C1852      C1856   1.529       .  S
C1852      C1854   1.531       .  S
C1852      H1858   1.111       .  S
C1853      H1859   1.086       .  S
C1855      H1860   1.080       .  S
C1855      C1856   1.363       .  D
C1856      C2834   1.485       .  S
O1861      C1864   1.264       .  A
O1861     Cd1866   2.456       .  S
C1862      O1871   1.264       .  A
C1862      C2626   1.491       .  S
C1864      O1872   1.267       .  A
C1864      C2114   1.467       .  S
C1865      O1868   1.262   1_556  A
Cd1866     O1873   2.440       .  S
Cd1866     O1872   2.486       .  S
Cd1866     O1867   2.504       .  S
Cd1866     O1868   2.509   1_556  S
C1869      O1873   1.262       .  A
O1874      C1877   1.264       .  A
O1874     Cd1879   2.491       .  S
C1875      O1884   1.267       .  A
C1875      O1880   1.265       .  A
C1875      C2125   1.466       .  S
O1876      C1882   1.263       .  A
O1876     Cd1879   2.505       .  S
C1877      C2610   1.478       .  S
C1878      O1883   1.268       .  A
C1878      O1881   1.262       .  A
Cd1879     O1886   2.513       .  S
Cd1879     O1884   2.481       .  S
Cd1879     O1880   2.451       .  S
Cd1879     O1883   2.536       .  S
Cd1879     O1881   2.413       .  S
C1882      O1886   1.264       .  A
C1887      C1888   1.545       .  S
C1887      C1893   1.538       .  S
C1887      C1891   1.561       .  S
C1887      C2578   1.549       .  S
C1888      C1889   1.358       .  D
C1889      C1890   1.529       .  S
C1889      C2594   1.472       .  S
C1890      C1894   1.530       .  S
C1890      C1892   1.536       .  S
C1890      H1896   1.111       .  S
C1891      C1892   1.375       .  D
C1892      C2629   1.490       .  S
C1893      H1898   1.086       .  S
C1893      C1894   1.360       .  D
C1894      C2562   1.486       .  S
C1899      C1900   1.527       .  S
C1900      H1907   1.084       .  S
C1900      C1901   1.357       .  D
C1901      C1902   1.529       .  S
C1901      C2530   1.475       .  S
C1902      C1906   1.540       .  S
C1902      C1904   1.546       .  S
C1902      H1908   1.107       .  S
C1903      H1909   1.082       .  S
C1905      H1910   1.087       .  S
O1911      C1914   1.267       .  A
O1911     Cd1916   2.473       .  S
C1912      O1921   1.267       .  A
C1912      O1917   1.265       .  A
C1912      C2099   1.469       .  S
O1913      C1919   1.263       .  A
O1913     Cd1916   2.474       .  S
C1914      C2514   1.490       .  S
C1915      O1920   1.270       .  A
C1915      O1918   1.261       .  A
Cd1916     O1923   2.492       .  S
Cd1916     O1921   2.486       .  S
Cd1916     O1917   2.454       .  S
Cd1916     O1920   2.520       .  S
Cd1916     O1918   2.408       .  S
C1919      O1923   1.266       .  A
O1924     Cd1929   2.469       .  S
C1925      O1934   1.265       .  A
C1925      O1930   1.265       .  A
C1925      C2088   1.469       .  S
C1927      O1935   1.267       .  A
C1927      C2498   1.489       .  S
C1928      O1931   1.262       .  A
Cd1929     O1936   2.502       .  S
Cd1929     O1934   2.489       .  S
Cd1929     O1930   2.464       .  S
Cd1929     O1931   2.437       .  S
C1932      O1936   1.264   1_554  A
C1937      C1938   1.541       .  S
C1937      C1943   1.532       .  S
C1937      C1941   1.555       .  S
C1937      C2469   1.535       .  S
C1938      C1939   1.366       .  D
C1939      C1940   1.535       .  S
C1939      C2482   1.487       .  S
C1940      C1944   1.536       .  S
C1940      C1942   1.535       .  S
C1940      H1946   1.111       .  S
C1941      C1942   1.371       .  D
C1942      C2501   1.484       .  S
C1943      H1948   1.087       .  S
C1943      C1944   1.354       .  D
C1944      C2450   1.473       .  S
C1949      C1950   1.548       .  S
C1950      H1957   1.079       .  S
C1950      C1951   1.372       .  D
C1951      C1952   1.542       .  S
C1951      C2434   1.497       .  S
C1952      C1956   1.528       .  S
C1952      C1954   1.539       .  S
C1952      H1958   1.100       .  S
C1953      H1959   1.085       .  S
C1955      H1960   1.088       .  S
C1961      C1967   1.530       .  S
C1962      H1969   1.086       .  S
C1963      C1964   1.548       .  S
C1964      C1968   1.541       .  S
C1964      C1966   1.544       .  S
C1964      H1970   1.110       .  S
C1965      H1971   1.086       .  S
C1966      C2405   1.509   1_556  S
C1967      H1972   1.083       .  S
C1967      C1968   1.367       .  D
C1968      C2386   1.484       .  S
O1973      C1976   1.268       .  A
O1973     Cd1978   2.468       .  S
C1974      O1983   1.264       .  A
C1974      O1979   1.264       .  A
C1974      C2025   1.467       .  S
O1975      C1981   1.264       .  A
O1975     Cd1978   2.507       .  S
C1976      C2402   1.491       .  S
C1977      O1982   1.264       .  A
C1977      O1980   1.263       .  A
Cd1978     O1985   2.476       .  S
Cd1978     O1983   2.486       .  S
Cd1978     O1979   2.468       .  S
Cd1978     O1982   2.498       .  S
Cd1978     O1980   2.474       .  S
C1981      O1985   1.263       .  A
O1986     Cd1991   2.479       .  S
C1987      O1996   1.266       .  A
C1987      O1992   1.265       .  A
C1987      C2012   1.466       .  S
C1989      O1997   1.266       .  A
C1989      C2373   1.479       .  S
C1990      O1993   1.260       .  A
Cd1991     O1998   2.468       .  S
Cd1991     O1996   2.475       .  S
Cd1991     O1992   2.460       .  S
Cd1991     O1993   2.428       .  S
C1994      O1998   1.263       .  A
C1999      C2000   1.532       .  S
C1999      C2005   1.524       .  S
C1999      C2003   1.556       .  S
C1999      C2370   1.529       .  S
C2000      H2007   1.085       .  S
C2000      C2001   1.362       .  D
C2001      C2002   1.532       .  S
C2001      C2354   1.479       .  S
C2002      C2006   1.532       .  S
C2002      C2004   1.540       .  S
C2002      H2008   1.111       .  S
C2003      C2004   1.379       .  D
C2004      C2546   1.487       .  S
C2005      C2006   1.349       .  D
C2006      C2418   1.465       .  S
O2011      C2014   1.265       .  A
O2011     Cd2016   2.473       .  S
C2012      O2021   1.267       .  A
C2012      O2017   1.265       .  A
O2013      C2019   1.268       .  A
O2013     Cd2016   2.543       .  S
C2014      O2022   1.264       .  A
C2014      C2338   1.492       .  S
C2015      O2020   1.264       .  A
C2015      O2018   1.264       .  A
C2015      C2028   1.474       .  S
Cd2016     O2023   2.432       .  S
Cd2016     O2022   2.466       .  S
Cd2016     O2021   2.474       .  S
Cd2016     O2017   2.455       .  S
Cd2016     O2020   2.502       .  S
Cd2016     O2018   2.487       .  S
C2019      O2023   1.262       .  A
O2024      C2027   1.264       .  A
O2024     Cd2029   2.477       .  S
C2025      O2034   1.266       .  A
C2025      O2030   1.263       .  A
O2026      C2032   1.266       .  A
O2026     Cd2029   2.536       .  S
C2027      O2035   1.267       .  A
C2027      C2322   1.493       .  S
C2028      O2033   1.264       .  A
C2028      O2031   1.263       .  A
Cd2029     O2036   2.433       .  S
Cd2029     O2035   2.477       .  S
Cd2029     O2034   2.486       .  S
Cd2029     O2030   2.458       .  S
Cd2029     O2033   2.506       .  S
Cd2029     O2031   2.487       .  S
C2032      O2036   1.261       .  A
C2037      C2038   1.529       .  S
C2037      C2043   1.546       .  S
C2037      C2041   1.536       .  S
C2037      C2341   1.542       .  S
C2038      H2045   1.087       .  S
C2038      C2039   1.358       .  D
C2039      C2040   1.539       .  S
C2039      C2306   1.481       .  S
C2040      C2044   1.536       .  S
C2040      C2042   1.537       .  S
C2040      H2046   1.104       .  S
C2041      H2047   1.086       .  S
C2041      C2042   1.372       .  D
C2042      C2290   1.485       .  S
C2043      H2048   1.082       .  S
C2043      C2044   1.369       .  D
C2044      C2357   1.484       .  S
C2049      C2050   1.545       .  S
C2049      C2055   1.545       .  S
C2049      C2053   1.547       .  S
C2049      C2277   1.547       .  S
C2050      H2057   1.085       .  S
C2050      C2051   1.366       .  D
C2051      C2052   1.533       .  S
C2051      C2325   1.484       .  S
C2052      C2056   1.531       .  S
C2052      C2054   1.541       .  S
C2052      H2058   1.109       .  S
C2053      H2059   1.084       .  S
C2053      C2054   1.367       .  D
C2054      C2309   1.484       .  S
C2055      H2060   1.081       .  S
C2055      C2056   1.361       .  D
C2056      C2389   1.486       .  S
C2061      C2062   1.541       .  S
C2061      C2067   1.541       .  S
C2061      C2065   1.549       .  S
C2061      C2226   1.550       .  S
C2062      H2069   1.080       .  S
C2062      C2063   1.366       .  D
C2063      C2064   1.540       .  S
C2063      C2437   1.499       .  S
C2064      C2068   1.532       .  S
C2064      C2066   1.540       .  S
C2064      H2070   1.103       .  S
C2065      H2071   1.086       .  S
C2065      C2066   1.374       .  D
C2066      C2242   1.492       .  S
C2067      H2072   1.086       .  S
C2067      C2068   1.359       .  D
C2068      C2258   1.483       .  S
C2073      C2074   1.522       .  S
C2073      C2079   1.528       .  S
C2073      C2077   1.558       .  S
C2073      C2210   1.535       .  S
C2074      H2081   1.087       .  S
C2074      C2075   1.354       .  D
C2075      C2076   1.538       .  S
C2075      C2261   1.478       .  S
C2076      C2080   1.541       .  S
C2076      C2078   1.539       .  S
C2076      H2082   1.109       .  S
C2077      H2083   1.078       .  S
C2077      C2078   1.381       .  D
C2078      C2274   1.495       .  S
C2079      H2084   1.083       .  S
C2079      C2080   1.360       .  D
C2080      C2453   1.491       .  S
O2085      C2088   1.264       .  A
O2085     Cd2090   2.450       .  S
C2086      O2095   1.265       .  A
C2086      O2091   1.264       .  A
C2086      C2213   1.476       .  S
O2087      C2093   1.266       .  A
O2087     Cd2090   2.507       .  S
C2088      O2096   1.268       .  A
C2089      O2094   1.268       .  A
C2089      O2092   1.261       .  A
Cd2090     O2097   2.480       .  S
Cd2090     O2096   2.497       .  S
Cd2090     O2095   2.436       .  S
Cd2090     O2091   2.470       .  S
Cd2090     O2094   2.524       .  S
Cd2090     O2092   2.440       .  S
C2093      O2097   1.264       .  A
C2093      C2102   1.475       .  S
O2098      C2101   1.266       .  A
O2098     Cd2103   2.459       .  S
C2099      O2108   1.265       .  A
C2099      O2104   1.262       .  A
O2100      C2106   1.265       .  A
O2100     Cd2103   2.499       .  S
C2101      O2109   1.268       .  A
C2101      C2245   1.496       .  S
C2102      O2107   1.263       .  A
C2102      O2105   1.263       .  A
Cd2103     O2110   2.469       .  S
Cd2103     O2109   2.511       .  S
Cd2103     O2108   2.502       .  S
Cd2103     O2104   2.463       .  S
Cd2103     O2107   2.507       .  S
Cd2103     O2105   2.494       .  S
C2106      O2110   1.264       .  A
O2111      C2114   1.266       .  A
O2111     Cd2116   2.454       .  S
C2112      O2121   1.266       .  A
C2112      O2117   1.265       .  A
C2112      C2194   1.490       .  S
O2113      C2119   1.263       .  A
O2113     Cd2116   2.473       .  S
C2114      O2122   1.266       .  A
C2115      O2120   1.268       .  A
C2115      O2118   1.260       .  A
Cd2116     O2123   2.503       .  S
Cd2116     O2122   2.473       .  S
Cd2116     O2121   2.481       .  S
Cd2116     O2117   2.463       .  S
Cd2116     O2120   2.518       .  S
Cd2116     O2118   2.411       .  S
C2119      O2123   1.266       .  A
C2119      C2128   1.472       .  S
O2124      C2127   1.267       .  A
O2124     Cd2129   2.455       .  S
C2125      O2134   1.267       .  A
C2125      O2130   1.264       .  A
O2126      C2132   1.269       .  A
O2126     Cd2129   2.518       .  S
C2127      O2135   1.264       .  A
C2127      C2178   1.484       .  S
C2128      O2133   1.263       .  A
C2128      O2131   1.264       .  A
Cd2129     O2136   2.416       .  S
Cd2129     O2135   2.434       .  S
Cd2129     O2134   2.480       .  S
Cd2129     O2130   2.441       .  S
Cd2129     O2133   2.482       .  S
Cd2129     O2131   2.498       .  S
C2132      O2136   1.261       .  A
C2137      C2138   1.527       .  S
C2137      C2143   1.546       .  S
C2137      C2141   1.536       .  S
C2137      C2181   1.536       .  S
C2138      H2145   1.087       .  S
C2138      C2139   1.356       .  D
C2139      C2140   1.537       .  S
C2139      C2162   1.474       .  S
C2140      C2144   1.540       .  S
C2140      C2142   1.537       .  S
C2140      H2146   1.108       .  S
C2141      H2147   1.086       .  S
C2141      C2142   1.372       .  D
C2142      C2293   1.484       .  S
C2143      H2148   1.081       .  S
C2143      C2144   1.365       .  D
C2144      C2533   1.485       .  S
C2149      C2150   1.548       .  S
C2149      C2155   1.545       .  S
C2149      C2153   1.540       .  S
C2149      C2229   1.550       .  S
C2150      H2157   1.084       .  S
C2150      C2151   1.373       .  D
C2151      C2152   1.542       .  S
C2151      C2197   1.492       .  S
C2152      C2156   1.537       .  S
C2152      C2154   1.538       .  S
C2152      H2158   1.108       .  S
C2153      H2159   1.087       .  S
C2153      C2154   1.358       .  D
C2154      C2165   1.486       .  S
C2155      H2160   1.079       .  S
C2155      C2156   1.362       .  D
C2156      C2565   1.484       .  S
C2161      C2162   1.397       .  A
C2161      C2166   1.396       .  A
C2161      H2168   1.085       .  S
C2162      C2163   1.409       .  A
C2163      C2170   1.505       .  S
C2163      C2164   1.409       .  A
C2164      C2165   1.406       .  A
C2164      H2169   1.083       .  S
C2165      C2166   1.413       .  A
C2166      C2167   1.498       .  S
C2167      H2171   1.111       .  S
C2167      H2172   1.105       .  S
C2167      H2173   1.110       .  S
C2170      H2174   1.110       .  S
C2170      H2175   1.111       .  S
C2170      H2176   1.110       .  S
C2177      C2178   1.405       .  A
C2177      C2182   1.404       .  A
C2177      H2184   1.084       .  S
C2178      C2179   1.416       .  A
C2179      C2186   1.509       .  S
C2179      C2180   1.400       .  A
C2180      C2181   1.407       .  A
C2180      H2185   1.076       .  S
C2181      C2182   1.423       .  A
C2182      C2183   1.514       .  S
C2183      H2187   1.111       .  S
C2183      H2188   1.109       .  S
C2183      H2189   1.105       .  S
C2186      H2190   1.110       .  S
C2186      H2191   1.110       .  S
C2186      H2192   1.111       .  S
C2193      C2194   1.406       .  A
C2193      C2198   1.406       .  A
C2193      H2200   1.084       .  S
C2194      C2195   1.419       .  A
C2195      C2202   1.508       .  S
C2195      C2196   1.405       .  A
C2196      C2197   1.403       .  A
C2196      H2201   1.084       .  S
C2197      C2198   1.415       .  A
C2198      C2199   1.509       .  S
C2199      H2203   1.111       .  S
C2199      H2204   1.104       .  S
C2199      H2205   1.110       .  S
C2202      H2206   1.109       .  S
C2202      H2207   1.110       .  S
C2202      H2208   1.111       .  S
C2209      C2210   1.411       .  A
C2209      C2214   1.407       .  A
C2209      H2216   1.078       .  S
C2210      C2211   1.436       .  A
C2211      C2218   1.521       .  S
C2211      C2212   1.397       .  A
C2212      C2213   1.394       .  A
C2212      H2217   1.085       .  S
C2213      C2214   1.411       .  A
C2214      C2215   1.507       .  S
C2215      H2219   1.111       .  S
C2215      H2220   1.110       .  S
C2215      H2221   1.110       .  S
C2218      H2222   1.105       .  S
C2218      H2223   1.105       .  S
C2218      H2224   1.111       .  S
C2225      C2226   1.417       .  A
C2225      C2230   1.407       .  A
C2225      H2232   1.074       .  S
C2226      C2227   1.423       .  A
C2227      C2234   1.513       .  S
C2227      C2228   1.404       .  A
C2228      C2229   1.412       .  A
C2228      H2233   1.073       .  S
C2229      C2230   1.422       .  A
C2230      C2231   1.516       .  S
C2231      H2235   1.111       .  S
C2231      H2236   1.106       .  S
C2231      H2237   1.106       .  S
C2234      H2238   1.111       .  S
C2234      H2239   1.098       .  S
C2234      H2240   1.110       .  S
C2241      C2242   1.402       .  A
C2241      C2246   1.410       .  A
C2241      H2248   1.085       .  S
C2242      C2243   1.413       .  A
C2243      C2250   1.503       .  S
C2243      C2244   1.403       .  A
C2244      C2245   1.406       .  A
C2244      H2249   1.084       .  S
C2245      C2246   1.421       .  A
C2246      C2247   1.506       .  S
C2247      H2251   1.111       .  S
C2247      H2252   1.110       .  S
C2247      H2253   1.110       .  S
C2250      H2254   1.107       .  S
C2250      H2255   1.106       .  S
C2250      H2256   1.111       .  S
C2257      C2258   1.402       .  A
C2257      C2262   1.399       .  A
C2257      H2264   1.086       .  S
C2258      C2259   1.420       .  A
C2259      C2266   1.507       .  S
C2259      C2260   1.402       .  A
C2260      C2261   1.398       .  A
C2260      H2265   1.084       .  S
C2261      C2262   1.414       .  A
C2262      C2263   1.507       .  S
C2263      H2267   1.111       .  S
C2263      H2268   1.109       .  S
C2263      H2269   1.110       .  S
C2266      H2270   1.101       .  S
C2266      H2271   1.110       .  S
C2266      H2272   1.111       .  S
C2273      C2274   1.406       .  A
C2273      C2278   1.407       .  A
C2273      H2280   1.084       .  S
C2274      C2275   1.411       .  A
C2275      C2282   1.508       .  S
C2275      C2276   1.404       .  A
C2276      C2277   1.415       .  A
C2276      H2281   1.075       .  S
C2277      C2278   1.424       .  A
C2278      C2279   1.513       .  S
C2279      H2283   1.111       .  S
C2279      H2284   1.104       .  S
C2279      H2285   1.108       .  S
C2282      H2286   1.110       .  S
C2282      H2287   1.108       .  S
C2282      H2288   1.111       .  S
C2289      C2290   1.399       .  A
C2289      C2294   1.401       .  A
C2289      H2296   1.084       .  S
C2290      C2291   1.419       .  A
C2291      C2298   1.505       .  S
C2291      C2292   1.402       .  A
C2292      C2293   1.400       .  A
C2292      H2297   1.084       .  S
C2293      C2294   1.417       .  A
C2294      C2295   1.505       .  S
C2295      H2299   1.111       .  S
C2295      H2300   1.108       .  S
C2295      H2301   1.106       .  S
C2298      H2302   1.107       .  S
C2298      H2303   1.106       .  S
C2298      H2304   1.111       .  S
C2305      C2306   1.405       .  A
C2305      C2310   1.412       .  A
C2305      H2312   1.085       .  S
C2306      C2307   1.415       .  A
C2307      C2314   1.510       .  S
C2307      C2308   1.392       .  A
C2308      C2309   1.397       .  A
C2308      H2313   1.082       .  S
C2309      C2310   1.416       .  A
C2310      C2311   1.506       .  S
C2311      H2315   1.111       .  S
C2311      H2316   1.109       .  S
C2311      H2317   1.107       .  S
C2314      H2318   1.107       .  S
C2314      H2319   1.111       .  S
C2314      H2320   1.111       .  S
C2321      C2322   1.406       .  A
C2321      C2326   1.403       .  A
C2321      H2328   1.084       .  S
C2322      C2323   1.422       .  A
C2323      C2330   1.508       .  S
C2323      C2324   1.409       .  A
C2324      C2325   1.401       .  A
C2324      H2329   1.084       .  S
C2325      C2326   1.409       .  A
C2326      C2327   1.504       .  S
C2327      H2331   1.111       .  S
C2327      H2332   1.110       .  S
C2327      H2333   1.106       .  S
C2330      H2334   1.110       .  S
C2330      H2335   1.110       .  S
C2330      H2336   1.111       .  S
C2337      C2338   1.405       .  A
C2337      C2342   1.403       .  A
C2337      H2344   1.084       .  S
C2338      C2339   1.417       .  A
C2339      C2346   1.508       .  S
C2339      C2340   1.405       .  A
C2340      C2341   1.410       .  A
C2340      H2345   1.078       .  S
C2341      C2342   1.424       .  A
C2342      C2343   1.510       .  S
C2343      H2347   1.110       .  S
C2343      H2348   1.104       .  S
C2343      H2349   1.111       .  S
C2346      H2350   1.111       .  S
C2346      H2351   1.109       .  S
C2346      H2352   1.111       .  S
C2353      C2354   1.401       .  A
C2353      C2358   1.403       .  A
C2353      H2360   1.080       .  S
C2354      C2355   1.410       .  A
C2355      C2362   1.510       .  S
C2355      C2356   1.397       .  A
C2356      C2357   1.406       .  A
C2356      H2361   1.084       .  S
C2357      C2358   1.414       .  A
C2358      C2359   1.506       .  S
C2359      H2363   1.110       .  S
C2359      H2364   1.107       .  S
C2359      H2365   1.106       .  S
C2362      H2366   1.106       .  S
C2362      H2367   1.110       .  S
C2362      H2368   1.111       .  S
C2369      C2370   1.410       .  A
C2369      C2374   1.408       .  A
C2369      H2376   1.076       .  S
C2370      C2371   1.433       .  A
C2371      C2378   1.518       .  S
C2371      C2372   1.392       .  A
C2372      C2373   1.395       .  A
C2372      H2377   1.086       .  S
C2373      C2374   1.414       .  A
C2374      C2375   1.507       .  S
C2375      H2379   1.111       .  S
C2375      H2380   1.110       .  S
C2378      H2382   1.100       .  S
C2378      H2384   1.111       .  S
C2385      C2386   1.404       .  A
C2385      C2390   1.408       .  A
C2385      H2392   1.080       .  S
C2386      C2387   1.413       .  A
C2387      C2394   1.508       .  S
C2387      C2388   1.394       .  A
C2388      C2389   1.403       .  A
C2388      H2393   1.085       .  S
C2389      C2390   1.414       .  A
C2390      C2391   1.504       .  S
C2391      H2395   1.108       .  S
C2391      H2396   1.111       .  S
C2391      H2397   1.105       .  S
C2394      H2398   1.109       .  S
C2394      H2399   1.111       .  S
C2394      H2400   1.110       .  S
C2401      C2402   1.399       .  A
C2401      C2406   1.402       .  A
C2401      H2408   1.085       .  S
C2403      C2410   1.507       .  S
C2403      C2404   1.410       .  A
C2404      C2405   1.410       .  A
C2404      H2409   1.084   1_554  S
C2406      C2407   1.501       .  S
C2407      H2411   1.110       .  S
C2407      H2413   1.110       .  S
C2410      H2414   1.110   1_554  S
C2410      H2416   1.111       .  S
C2417      C2422   1.400       .  A
C2417      H2424   1.085       .  S
C2418      C2419   1.411       .  A
C2419      C2426   1.507       .  S
C2419      C2420   1.394       .  A
C2420      C2421   1.404       .  A
C2420      H2425   1.087       .  S
C2422      C2423   1.503       .  S
C2423      H2427   1.110       .  S
C2423      H2428   1.110       .  S
C2423      H2429   1.108       .  S
C2426      H2430   1.105       .  S
C2426      H2431   1.109       .  S
C2426      H2432   1.110       .  S
C2433      C2434   1.409       .  A
C2433      C2438   1.405       .  A
C2433      H2440   1.085       .  S
C2434      C2435   1.415       .  A
C2435      C2442   1.507       .  S
C2435      C2436   1.399       .  A
C2436      C2437   1.408       .  A
C2436      H2441   1.084       .  S
C2437      C2438   1.416       .  A
C2438      C2439   1.506       .  S
C2439      H2443   1.111       .  S
C2439      H2444   1.108       .  S
C2439      H2445   1.107       .  S
C2442      H2446   1.107       .  S
C2442      H2447   1.105       .  S
C2442      H2448   1.111       .  S
C2449      C2450   1.395       .  A
C2449      C2454   1.400       .  A
C2449      H2456   1.085       .  S
C2450      C2451   1.416       .  A
C2451      C2458   1.507       .  S
C2451      C2452   1.400       .  A
C2452      C2453   1.402       .  A
C2452      H2457   1.081       .  S
C2453      C2454   1.424       .  A
C2454      C2455   1.510       .  S
C2455      H2459   1.111       .  S
C2455      H2460   1.108       .  S
C2455      H2461   1.110       .  S
C2458      H2462   1.110       .  S
C2458      H2463   1.104       .  S
C2458      H2464   1.110       .  S
C2465      C2466   1.400       .  A
C2465      C2470   1.392       .  A
C2465      H2472   1.085       .  S
C2467      C2474   1.506       .  S
C2467      C2468   1.409       .  A
C2468      H2473   1.077       .  S
C2469      C2470   1.428       .  A
C2470      C2471   1.512       .  S
C2471      H2475   1.111       .  S
C2471      H2476   1.095       .  S
C2471      H2477   1.110       .  S
C2474      H2478   1.110       .  S
C2474      H2479   1.108       .  S
C2474      H2480   1.111       .  S
C2481      C2486   1.403       .  A
C2481      H2488   1.084       .  S
C2482      C2483   1.417       .  A
C2483      C2490   1.504       .  S
C2483      C2484   1.397       .  A
C2484      C2485   1.401       .  A
C2484      H2489   1.085       .  S
C2486      C2487   1.508       .  S
C2487      H2491   1.111       .  S
C2487      H2492   1.110       .  S
C2487      H2493   1.107       .  S
C2490      H2494   1.111       .  S
C2490      H2495   1.095       .  S
C2490      H2496   1.110       .  S
C2497      C2498   1.409       .  A
C2497      C2502   1.409       .  A
C2497      H2504   1.084       .  S
C2498      C2499   1.418       .  A
C2499      C2506   1.508       .  S
C2499      C2500   1.403       .  A
C2500      C2501   1.401       .  A
C2500      H2505   1.084       .  S
C2501      C2502   1.410       .  A
C2502      C2503   1.506       .  S
C2503      H2507   1.111       .  S
C2503      H2509   1.110       .  S
C2506      H2510   1.109       .  S
C2506      H2511   1.111       .  S
C2506      H2512   1.111       .  S
C2513      C2514   1.403       .  A
C2513      C2518   1.404       .  A
C2513      H2520   1.083       .  S
C2515      C2522   1.510       .  S
C2515      C2516   1.403       .  A
C2516      H2521   1.073       .  S
C2517      C2518   1.426       .  A
C2518      C2519   1.513       .  S
C2519      H2523   1.111       .  S
C2519      H2524   1.107       .  S
C2519      H2525   1.108       .  S
C2522      H2526   1.110       .  S
C2522      H2527   1.110       .  S
C2522      H2528   1.111       .  S
C2529      C2530   1.399       .  A
C2529      C2534   1.401       .  A
C2529      H2536   1.084       .  S
C2530      C2531   1.411       .  A
C2531      C2538   1.509       .  S
C2531      C2532   1.396       .  A
C2532      C2533   1.407       .  A
C2532      H2537   1.085       .  S
C2533      C2534   1.417       .  A
C2534      C2535   1.504       .  S
C2535      H2539   1.110       .  S
C2535      H2540   1.111       .  S
C2535      H2541   1.096       .  S
C2538      H2542   1.111       .  S
C2538      H2543   1.109       .  S
C2538      H2544   1.110       .  S
C2545      C2546   1.400       .  A
C2545      C2550   1.398       .  A
C2545      H2552   1.084       .  S
C2546      C2547   1.413       .  A
C2547      C2554   1.506       .  S
C2547      C2548   1.407       .  A
C2548      C2549   1.411       .  A
C2548      H2553   1.082       .  S
C2549      C2550   1.422       .  A
C2551      H2555   1.111   1_556  S
C2551      H2557   1.110       .  S
C2554      H2558   1.110       .  S
C2554      H2559   1.108       .  S
C2554      H2560   1.111       .  S
C2561      C2562   1.404       .  A
C2561      C2566   1.409       .  A
C2561      H2568   1.080       .  S
C2562      C2563   1.414       .  A
C2563      C2570   1.508       .  S
C2563      C2564   1.399       .  A
C2564      C2565   1.403       .  A
C2564      H2569   1.085       .  S
C2565      C2566   1.410       .  A
C2566      C2567   1.504       .  S
C2567      H2571   1.111       .  S
C2567      H2572   1.110       .  S
C2567      H2573   1.109       .  S
C2570      H2574   1.109       .  S
C2570      H2575   1.110       .  S
C2570      H2576   1.110       .  S
C2577      C2578   1.416       .  A
C2577      C2582   1.397       .  A
C2577      H2584   1.085       .  S
C2578      C2579   1.429       .  A
C2579      C2586   1.502       .  S
C2579      C2580   1.412       .  A
C2580      C2581   1.401       .  A
C2580      H2585   1.084       .  S
C2581      C2582   1.402       .  A
C2582      C2583   1.507       .  S
C2583      H2587   1.111       .  S
C2583      H2588   1.111       .  S
C2586      H2590   1.110       .  S
C2586      H2592   1.111       .  S
C2593      C2598   1.397       .  A
C2593      H2600   1.080       .  S
C2594      C2595   1.405       .  A
C2595      C2602   1.505       .  S
C2595      C2596   1.403       .  A
C2596      C2597   1.406       .  A
C2596      H2601   1.081       .  S
C2598      C2599   1.507       .  S
C2599      H2603   1.110       .  S
C2599      H2604   1.107       .  S
C2599      H2605   1.110       .  S
C2602      H2606   1.105       .  S
C2602      H2607   1.110       .  S
C2602      H2608   1.110       .  S
C2609      C2614   1.394       .  A
C2609      H2616   1.085       .  S
C2610      C2611   1.412       .  A
C2611      C2618   1.506       .  S
C2611      C2612   1.412       .  A
C2612      C2613   1.413       .  A
C2612      H2617   1.079       .  S
C2614      C2615   1.519       .  S
C2615      H2619   1.111       .  S
C2615      H2620   1.104       .  S
C2615      H2621   1.103       .  S
C2618      H2622   1.110       .  S
C2618      H2623   1.109       .  S
C2618      H2624   1.111       .  S
C2625      H2632   1.085       .  S
C2626      C2627   1.417       .  A
C2627      C2634   1.508       .  S
C2627      C2628   1.401       .  A
C2628      C2629   1.401       .  A
C2628      H2633   1.085       .  S
C2629      C2630   1.417       .  A
C2631      H2635   1.111       .  S
C2631      H2637   1.109       .  S
C2634      H2638   1.110       .  S
C2634      H2639   1.110       .  S
C2634      H2640   1.111       .  S
C2641      C2646   1.404       .  A
C2641      H2648   1.084       .  S
C2642      C2643   1.423       .  A
C2643      C2650   1.507       .  S
C2643      C2644   1.409       .  A
C2644      C2645   1.402       .  A
C2644      H2649   1.084       .  S
C2646      C2647   1.507       .  S
C2647      H2651   1.111       .  S
C2647      H2652   1.106       .  S
C2647      H2653   1.110       .  S
C2650      H2654   1.110       .  S
C2650      H2655   1.110       .  S
C2650      H2656   1.111       .  S
C2657      C2658   1.406       .  A
C2657      C2662   1.407       .  A
C2658      C2659   1.417       .  A
C2659      C2666   1.509       .  S
C2659      C2660   1.403       .  A
C2660      C2661   1.409       .  A
C2660      H2665   1.077       .  S
C2661      C2662   1.422       .  A
C2663      H2667   1.111       .  S
C2663      H2669   1.105       .  S
C2666      H2670   1.111       .  S
C2666      H2671   1.109       .  S
C2666      H2672   1.111       .  S
C2673      C2674   1.397       .  A
C2673      C2678   1.395       .  A
C2673      H2680   1.084       .  S
C2675      C2682   1.508   1_554  S
C2675      C2676   1.402       .  A
C2676      H2681   1.072       .  S
C2677      C2678   1.417       .  A
C2678      C2679   1.509       .  S
C2679      H2683   1.110       .  S
C2679      H2684   1.111       .  S
C2679      H2685   1.108       .  S
C2682      H2686   1.109       .  S
C2682      H2687   1.108       .  S
C2682      H2688   1.111       .  S
C2689      H2696   1.078   1_554  S
C2690      C2691   1.425       .  A
C2691      C2698   1.508       .  S
C2691      C2692   1.405       .  A
C2692      C2693   1.402       .  A
C2692      H2697   1.084       .  S
C2693      C2694   1.409       .  A
C2695      H2699   1.111       .  S
C2695      H2701   1.110       .  S
C2698      H2702   1.108       .  S
C2698      H2703   1.110       .  S
C2698      H2704   1.111       .  S
C2705      H2712   1.079       .  S
C2706      C2707   1.413       .  A
C2707      C2714   1.506       .  S
C2707      C2708   1.403       .  A
C2708      C2709   1.399       .  A
C2708      H2713   1.078       .  S
C2709      C2710   1.409       .  A
C2711      H2715   1.111       .  S
C2711      H2717   1.108       .  S
C2714      H2718   1.109       .  S
C2714      H2719   1.103       .  S
C2714      H2720   1.111       .  S
C2721      C2722   1.407       .  A
C2721      C2726   1.409       .  A
C2722      C2723   1.416       .  A
C2723      C2730   1.507       .  S
C2723      C2724   1.403       .  A
C2724      C2725   1.403       .  A
C2724      H2729   1.081       .  S
C2725      C2726   1.418       .  A
C2727      H2731   1.111       .  S
C2727      H2733   1.106       .  S
C2730      H2734   1.109       .  S
C2730      H2735   1.110       .  S
C2730      H2736   1.111       .  S
C2737      C2742   1.402   1_556  A
C2737      H2744   1.076       .  S
C2738      C2739   1.425       .  A
C2739      C2746   1.511       .  S
C2739      C2740   1.399       .  A
C2740      C2741   1.402       .  A
C2740      H2745   1.083       .  S
C2742      C2743   1.509   1_554  S
C2743      H2747   1.111       .  S
C2743      H2748   1.110       .  S
C2743      H2749   1.110       .  S
C2746      H2750   1.102       .  S
C2746      H2751   1.111       .  S
C2746      H2752   1.110       .  S
C2753      C2754   1.401       .  A
C2753      C2758   1.409       .  A
C2753      H2760   1.083       .  S
C2754      C2755   1.409       .  A
C2755      C2762   1.508       .  S
C2755      C2756   1.404       .  A
C2756      C2757   1.415       .  A
C2756      H2761   1.073       .  S
C2757      C2758   1.429       .  A
C2759      H2763   1.111       .  S
C2759      H2765   1.106       .  S
C2762      H2766   1.110       .  S
C2762      H2767   1.111       .  S
C2762      H2768   1.107       .  S
C2769      C2770   1.414       .  A
C2769      C2774   1.404       .  A
C2769      H2776   1.074       .  S
C2771      C2778   1.512       .  S
C2771      C2772   1.406       .  A
C2772      H2777   1.083       .  S
C2773      C2774   1.413       .  A
C2774      C2775   1.510       .  S
C2775      H2779   1.111       .  S
C2775      H2780   1.110       .  S
C2775      H2781   1.110       .  S
C2778      H2782   1.105       .  S
C2778      H2783   1.106       .  S
C2778      H2784   1.111       .  S
C2785      C2786   1.391       .  A
C2785      C2790   1.400       .  A
C2785      H2792   1.085       .  S
C2787      C2794   1.508   1_554  S
C2787      C2788   1.407       .  A
C2788      H2793   1.075       .  S
C2789      C2790   1.434       .  A
C2790      C2791   1.511       .  S
C2791      H2795   1.111       .  S
C2791      H2796   1.111       .  S
C2791      H2797   1.096       .  S
C2794      H2798   1.110   1_556  S
C2794      H2799   1.111       .  S
C2794      H2800   1.111       .  S
C2801      C2806   1.408       .  A
C2801      H2808   1.077       .  S
C2802      C2803   1.432   1_554  A
C2803      C2810   1.517       .  S
C2803      C2804   1.398   1_556  A
C2804      H2809   1.084   1_554  S
C2805      C2806   1.414       .  A
C2806      C2807   1.508       .  S
C2807      H2811   1.111       .  S
C2807      H2812   1.111       .  S
C2807      H2813   1.110       .  S
C2810      H2814   1.102       .  S
C2810      H2815   1.105       .  S
C2810      H2816   1.111       .  S
C2817      C2818   1.403       .  A
C2817      C2822   1.410       .  A
C2817      H2824   1.084       .  S
C2819      C2826   1.509       .  S
C2819      C2820   1.394       .  A
C2820      H2825   1.085       .  S
C2821      C2822   1.418       .  A
C2822      C2823   1.505       .  S
C2823      H2827   1.111       .  S
C2823      H2828   1.110       .  S
C2823      H2829   1.102       .  S
C2826      H2830   1.106       .  S
C2826      H2831   1.111       .  S
C2826      H2832   1.110       .  S
C2833      C2834   1.402       .  A
C2833      C2838   1.397       .  A
C2833      H2840   1.085       .  S
C2834      C2835   1.418       .  A
C2835      C2842   1.504       .  S
C2835      C2836   1.406       .  A
C2836      C2837   1.400       .  A
C2836      H2841   1.085       .  S
C2837      C2838   1.412       .  A
C2838      C2839   1.508       .  S
C2839      H2843   1.110       .  S
C2839      H2844   1.107       .  S
C2839      H2845   1.110       .  S
C2842      H2846   1.110       .  S
C2842      H2847   1.101       .  S
C2842      H2848   1.110       .  S
C2849      C2850   1.408       .  A
C2849      C2854   1.407       .  A
C2849      H2856   1.084       .  S
C2850      C2851   1.419       .  A
C2851      C2858   1.508       .  S
C2851      C2852   1.403       .  A
C2852      C2853   1.402       .  A
C2852      H2857   1.085       .  S
C2853      C2854   1.416       .  A
C2854      C2855   1.508       .  S
C2855      H2859   1.111       .  S
C2855      H2860   1.107       .  S
C2855      H2861   1.108       .  S
C2858      H2862   1.110       .  S
C2858      H2863   1.110       .  S
C2858      H2864   1.111       .  S
C2865      C2866   1.402       .  A
C2865      C2870   1.405       .  A
C2865      H2872   1.079       .  S
C2866      C2867   1.416       .  A
C2867      C2874   1.510       .  S
C2867      C2868   1.397       .  A
C2868      C2869   1.404       .  A
C2868      H2873   1.084       .  S
C2869      C2870   1.416       .  A
C2870      C2871   1.505       .  S
C2871      H2875   1.110       .  S
C2871      H2876   1.104       .  S
C2871      H2877   1.107       .  S
C2874      H2878   1.110       .  S
C2874      H2879   1.106       .  S
C2874      H2880   1.111       .  S
C2881      C2882   1.412       .  A
C2881      C2886   1.407       .  A
C2881      H2888   1.079       .  S
C2882      C2883   1.435       .  A
C2883      C2890   1.514       .  S
C2883      C2884   1.400       .  A
C2884      C2885   1.396       .  A
C2884      H2889   1.085       .  S
C2885      C2886   1.413       .  A
C2886      C2887   1.508       .  S
C2887      H2891   1.111       .  S
C2887      H2892   1.110       .  S
C2887      H2893   1.109       .  S
C2890      H2894   1.107       .  S
C2890      H2895   1.104       .  S
C2890      H2896   1.112       .  S
C2897      C2898   1.405       .  A
C2897      C2902   1.407       .  A
C2897      H2904   1.084       .  S
C2898      C2899   1.412       .  A
C2899      C2906   1.506       .  S
C2899      C2900   1.396       .  A
C2900      C2901   1.397       .  A
C2900      H2905   1.081       .  S
C2901      C2902   1.412       .  A
C2902      C2903   1.506       .  S
C2903      H2907   1.110       .  S
C2903      H2908   1.110       .  S
C2903      H2909   1.109       .  S
C2906      H2910   1.104       .  S
C2906      H2911   1.106       .  S
C2906      H2912   1.111       .  S
C2913      C2914   1.397       .  A
C2913      C2918   1.403       .  A
C2913      H2920   1.079       .  S
C2914      C2915   1.416       .  A
C2915      C2922   1.508       .  S
C2915      C2916   1.401       .  A
C2916      C2917   1.404       .  A
C2916      H2921   1.085       .  S
C2917      C2918   1.416       .  A
C2918      C2919   1.501       .  S
C2919      H2923   1.111       .  S
C2919      H2924   1.104       .  S
C2919      H2925   1.106       .  S
C2922      H2926   1.106       .  S
C2922      H2927   1.110       .  S
C2922      H2928   1.111       .  S
C2929      C2930   1.398       .  A
C2929      C2934   1.399       .  A
C2929      H2936   1.084       .  S
C2930      C2931   1.416       .  A
C2931      C2938   1.506       .  S
C2931      C2932   1.409       .  A
C2932      C2933   1.405       .  A
C2932      H2937   1.085       .  S
C2933      C2934   1.420       .  A
C2934      C2935   1.504       .  S
C2935      H2939   1.111       .  S
C2935      H2940   1.105       .  S
C2935      H2941   1.103       .  S
C2938      H2942   1.106       .  S
C2938      H2943   1.108       .  S
C2938      H2944   1.111       .  S
C2945      C2946   1.399       .  A
C2945      C2950   1.398       .  A
C2945      H2952   1.085       .  S
C2946      C2947   1.409       .  A
C2947      C2954   1.507       .  S
C2947      C2948   1.406       .  A
C2948      C2949   1.404       .  A
C2948      H2953   1.081       .  S
C2949      C2950   1.415       .  A
C2950      C2951   1.504       .  S
C2951      H2955   1.111       .  S
C2951      H2956   1.101       .  S
C2951      H2957   1.110       .  S
C2954      H2958   1.110       .  S
C2954      H2959   1.111       .  S
C2954      H2960   1.110       .  S
C2961      C2962   1.400       .  A
C2961      C2966   1.399       .  A
C2961      H2968   1.083       .  S
C2962      C2963   1.417       .  A
C2963      C2970   1.507       .  S
C2963      C2964   1.409       .  A
C2964      C2965   1.402       .  A
C2964      H2969   1.078       .  S
C2965      C2966   1.414       .  A
C2966      C2967   1.509       .  S
C2967      H2971   1.111       .  S
C2967      H2972   1.111       .  S
C2967      H2973   1.106       .  S
C2970      H2974   1.109       .  S
C2970      H2975   1.105       .  S
C2970      H2976   1.111       .  S
C2977      C2978   1.404       .  A
C2977      C2982   1.400       .  A
C2977      H2984   1.084       .  S
C2978      C2979   1.416       .  A
C2979      C2986   1.508       .  S
C2979      C2980   1.404       .  A
C2980      C2981   1.411       .  A
C2980      H2985   1.084       .  S
C2981      C2982   1.416       .  A
C2982      C2983   1.506       .  S
C2983      H2987   1.111       .  S
C2983      H2988   1.108       .  S
C2983      H2989   1.110       .  S
C2986      H2990   1.110       .  S
C2986      H2991   1.110       .  S
C2986      H2992   1.111       .  S
C2993      C2994   1.404       .  A
C2993      C2998   1.413       .  A
C2993      H3000   1.084       .  S
C2994      C2995   1.412       .  A
C2995      C3002   1.502       .  S
C2995      C2996   1.400       .  A
C2996      C2997   1.404       .  A
C2996      H3001   1.083       .  S
C2997      C2998   1.422       .  A
C2998      C2999   1.506       .  S
C2999      H3003   1.111       .  S
C2999      H3004   1.110       .  S
C2999      H3005   1.110       .  S
C3002      H3006   1.105       .  S
C3002      H3007   1.106       .  S
C3002      H3008   1.111       .  S
C3009      C3010   1.396       .  A
C3009      C3014   1.398       .  A
C3009      H3016   1.085       .  S
C3010      C3011   1.413       .  A
C3011      C3018   1.511       .  S
C3011      C3012   1.402       .  A
C3012      C3013   1.402       .  A
C3012      H3017   1.082       .  S
C3013      C3014   1.420       .  A
C3014      C3015   1.510       .  S
C3015      H3019   1.110       .  S
C3015      H3020   1.111       .  S
C3015      H3021   1.105       .  S
C3018      H3022   1.109       .  S
C3018      H3023   1.105       .  S
C3018      H3024   1.111       .  S
C3025      C3026   1.411       .  A
C3025      C3030   1.406       .  A
C3025      H3032   1.082       .  S
C3026      C3027   1.428       .  A
C3027      C3034   1.505       .  S
C3027      C3028   1.400       .  A
C3028      C3029   1.402       .  A
C3028      H3033   1.083       .  S
C3029      C3030   1.419       .  A
C3030      C3031   1.508       .  S
C3031      H3035   1.111       .  S
C3031      H3036   1.110       .  S
C3031      H3037   1.107       .  S
C3034      H3038   1.110       .  S
C3034      H3039   1.090       .  S
C3034      H3040   1.111       .  S
C3041      C3042   1.411       .  A
C3041      C3046   1.405       .  A
C3041      H3048   1.075       .  S
C3042      C3043   1.421       .  A
C3043      C3050   1.511       .  S
C3043      C3044   1.408       .  A
C3044      C3045   1.407       .  A
C3044      H3049   1.083       .  S
C3045      C3046   1.417       .  A
C3046      C3047   1.509       .  S
C3047      H3051   1.111       .  S
C3047      H3052   1.110       .  S
C3047      H3053   1.111       .  S
C3050      H3054   1.105       .  S
C3050      H3055   1.110       .  S
C3050      H3056   1.110       .  S
C3057      C3058   1.400       .  A
C3057      C3062   1.406       .  A
C3057      H3064   1.081       .  S
C3058      C3059   1.413       .  A
C3059      C3066   1.508       .  S
C3059      C3060   1.397       .  A
C3060      C3061   1.406       .  A
C3060      H3065   1.085       .  S
C3061      C3062   1.421       .  A
C3062      C3063   1.505       .  S
C3063      H3067   1.111       .  S
C3063      H3068   1.100       .  S
C3063      H3069   1.109       .  S
C3066      H3070   1.110       .  S
C3066      H3071   1.109       .  S
C3066      H3072   1.110       .  S
C3073      C3074   1.404       .  A
C3073      C3078   1.409       .  A
C3073      H3080   1.084       .  S
C3074      C3075   1.401       .  A
C3075      C3082   1.511       .  S
C3075      C3076   1.399       .  A
C3076      C3077   1.422       .  A
C3076      H3081   1.072       .  S
C3077      C3078   1.425       .  A
C3078      C3079   1.510       .  S
C3079      H3083   1.111       .  S
C3079      H3084   1.107       .  S
C3079      H3085   1.108       .  S
C3082      H3086   1.108       .  S
C3082      H3087   1.110       .  S
C3082      H3088   1.111       .  S
C3089      C3090   1.414       .  A
C3089      C3094   1.412       .  A
C3089      H3096   1.078       .  S
C3090      C3091   1.433       .  A
C3091      C3098   1.515       .  S
C3091      C3092   1.401       .  A
C3092      C3093   1.396       .  A
C3092      H3097   1.084       .  S
C3093      C3094   1.414       .  A
C3094      C3095   1.507       .  S
C3095      H3099   1.111       .  S
C3095      H3100   1.111       .  S
C3095      H3101   1.109       .  S
C3098      H3102   1.106       .  S
C3098      H3103   1.105       .  S
C3098      H3104   1.111       .  S
C3105      C3106   1.404       .  A
C3105      C3110   1.410       .  A
C3105      H3112   1.083       .  S
C3106      C3107   1.408       .  A
C3107      C3114   1.506       .  S
C3107      C3108   1.401       .  A
C3108      C3109   1.408       .  A
C3108      H3113   1.083       .  S
C3109      C3110   1.417       .  A
C3110      C3111   1.502       .  S
C3111      H3115   1.111       .  S
C3111      H3116   1.102       .  S
C3111      H3117   1.108       .  S
C3114      H3118   1.109       .  S
C3114      H3119   1.105       .  S
C3114      H3120   1.110       .  S
