geometry optimzed in LAMMPS
_audit_creation_date              2020-11-30 
_audit_creation_method            'lammps2cif' 
_symmetry_space_group_name_H-M    'P1' 
_symmetry_Int_Tables_number       1 
_symmetry_cell_setting            triclinic 
loop_ 
_symmetry_equiv_pos_as_xyz 
  x,y,z 
_cell_length_a                    26.50630332 
_cell_length_b                    25.87405640243901 
_cell_length_c                    25.765474480219478 
_cell_angle_alpha                 89.96952148543792 
_cell_angle_beta                  89.945987022251 
_cell_angle_gamma                 90.24706463735396 
loop_ 
_atom_site_label 
_atom_site_type_symbol 
_atom_site_fract_x 
_atom_site_fract_y 
_atom_site_fract_z 
_atom_site_charge 
Zn1        Zn  0.05285763  0.54263541  0.95537872     1.49700
Zn2        Zn  0.96700015  0.54651784  0.03931932     1.49400
Zn3        Zn  0.96535567  0.45394008  0.96065124     1.49100
Zn4        Zn  0.05309310  0.45622353  0.04209224     1.49500
O5          O  0.00973383  0.49987038  0.99944380    -1.83900
O6          O  0.04142849  0.61930151  0.96469441    -0.74500
O7          O  0.89239303  0.53471069  0.02721880    -0.74300
O8          O  0.97740761  0.46500483  0.88566958    -0.73800
O9          O  0.98188665  0.62139508  0.02478807    -0.74500
O10         O  0.03808607  0.52486975  0.88221387    -0.74100
O11         O  0.89213137  0.46708104  0.97452673    -0.74700
O12         O  0.04063839  0.37950217  0.03171134    -0.74100
O13         O  0.97977931  0.53381976  0.11380861    -0.74900
O14         O  0.97712324  0.37892493  0.97605636    -0.74200
O15         O  0.03814138  0.47209606  0.11574911    -0.74700
O16         O  0.12699294  0.46989544  0.02939237    -0.74600
O17         O  0.12660655  0.53041237  0.96838217    -0.74400
C18         C  0.01215751  0.64467090  0.99426055     0.77400
C19         C  0.86873697  0.50049192  0.00130906     0.77900
C20         C  0.00751918  0.49386877  0.86027452     0.76800
C21         C  0.00844063  0.35497065  0.00451480     0.77200
C22         C  0.00819079  0.50293770  0.13851114     0.78300
C23         C  0.15027962  0.50071558  0.99912093     0.77400
Zn24       Zn  0.03651927  0.54364287  0.54150502     1.49700
Zn25       Zn  0.03499921  0.45681876  0.45641094     1.49400
Zn26       Zn  0.95017494  0.45478290  0.54087024     1.49100
Zn27       Zn  0.94858926  0.54618663  0.45906874     1.49500
O28         O  0.99238440  0.50054262  0.49934648    -1.83900
O29         O  0.10990415  0.53180684  0.52628633    -0.74500
O30         O  0.02226893  0.38069727  0.46649866    -0.74300
O31         O  0.96465360  0.46699243  0.61507497    -0.73800
O32         O  0.10902994  0.46900276  0.46805383    -0.74500
O33         O  0.02527533  0.52686446  0.61565408    -0.74100
O34         O  0.96299542  0.37948249  0.52687538    -0.74700
O35         O  0.87464274  0.53185249  0.47300526    -0.74100
O36         O  0.02135326  0.47378733  0.38337172    -0.74900
O37         O  0.87648252  0.46725899  0.52950528    -0.74200
O38         O  0.96218009  0.53469087  0.38384213    -0.74700
O39         O  0.96226998  0.62190173  0.47340170    -0.74600
O40         O  0.02360870  0.61944434  0.53137380    -0.74400
C41         C  0.13306658  0.50079212  0.49648407     0.77400
C42         C  0.99247081  0.35580328  0.49618378     0.77900
C43         C  0.99537727  0.49616605  0.63907131     0.76800
C44         C  0.85198268  0.49892190  0.50162079     0.77200
C45         C  0.99247722  0.50509276  0.35987896     0.78300
C46         C  0.99362216  0.64504242  0.50287890     0.77400
Zn47       Zn  0.55227605  0.54417902  0.95772822     1.49700
Zn48       Zn  0.55326254  0.45313288  0.03894890     1.49400
Zn49       Zn  0.46596686  0.54166128  0.04129043     1.49100
Zn50       Zn  0.46572814  0.45436580  0.95618796     1.49500
O51         O  0.50930365  0.49821486  0.99854430    -1.83900
O52         O  0.62608856  0.53142463  0.96928096    -0.74500
O53         O  0.53977141  0.46523652  0.11372365    -0.74300
O54         O  0.47897317  0.61765738  0.03117516    -0.73800
O55         O  0.62710547  0.46761728  0.02653724    -0.74500
O56         O  0.54056646  0.61941583  0.97310490    -0.74100
O57         O  0.47933318  0.52487601  0.11488257    -0.74700
O58         O  0.39208730  0.46704857  0.96980354    -0.74100
O59         O  0.54037965  0.37744486  0.02492711    -0.74900
O60         O  0.39190105  0.52981461  0.02823188    -0.74200
O61         O  0.47762195  0.37801423  0.96808428    -0.74700
O62         O  0.47826145  0.47149844  0.88202601    -0.74600
O63         O  0.53700748  0.53337535  0.88332826    -0.74400
C64         C  0.65021655  0.50032809  0.99815415     0.77400
C65         C  0.50943530  0.49446160  0.13801205     0.77900
C66         C  0.51002231  0.64266985  0.00300053     0.76800
C67         C  0.36845164  0.49815411  0.99912917     0.77200
C68         C  0.50884017  0.35357184  0.99638376     0.78300
C69         C  0.50700289  0.50367909  0.85894273     0.77400
Zn70       Zn  0.44777071  0.54466210  0.53754343     1.49700
Zn71       Zn  0.53572577  0.45672279  0.54317486     1.49400
Zn72       Zn  0.45105596  0.45218460  0.45771468     1.49100
Zn73       Zn  0.53680345  0.54212868  0.45661226     1.49500
O74         O  0.49266904  0.49891650  0.49884296    -1.83900
O75         O  0.46076018  0.53508562  0.61309822    -0.74500
O76         O  0.52322648  0.38004944  0.53532524    -0.74300
O77         O  0.37657703  0.46424655  0.46788360    -0.73800
O78         O  0.52229694  0.47654742  0.61571474    -0.74500
O79         O  0.37439171  0.52944508  0.52349112    -0.74100
O80         O  0.46467854  0.37753266  0.47416492    -0.74700
O81         O  0.52606245  0.52462772  0.38274928    -0.74100
O82         O  0.60978279  0.46886343  0.53099225    -0.74900
O83         O  0.46668590  0.46334158  0.38316612    -0.74200
O84         O  0.61007737  0.53099415  0.47194855    -0.74700
O85         O  0.52382972  0.61806622  0.46606438    -0.74600
O86         O  0.46015249  0.62016064  0.52165645    -0.74400
C87         C  0.49198401  0.50732708  0.63799013     0.77400
C88         C  0.49378294  0.35457770  0.50578518     0.77900
C89         C  0.35184104  0.49632203  0.49516879     0.76800
C90         C  0.49708972  0.49314047  0.35929271     0.77200
C91         C  0.63348321  0.50056453  0.50209272     0.78300
C92         C  0.49246024  0.64332913  0.49330481     0.77400
N93         N  0.99891935  0.94344674  0.05523921    -0.36400
N94         N  0.99752432  0.94593321  0.93939510    -0.56900
N95         N  0.98848305  0.05653164  0.94224052    -0.36400
N96         N  0.99548032  0.05399887  0.05789612    -0.56900
C97         C  0.01201396  0.89429046  0.04372961     0.27200
C98         C  0.00917205  0.95135579  0.10634352     0.27200
C99         C  0.99527223  0.04972108  0.89033195     0.27200
C100        C  0.99701559  0.10706872  0.95287858     0.27200
C101        C  0.99463428  0.89436326  0.94759225     0.35800
C102        C  0.98852199  0.95377777  0.88812725     0.35800
C103        C  0.99094446  0.04539857  0.10964291     0.35800
C104        C  0.98786032  0.10505259  0.05033510     0.35800
C105        C  0.03031507  0.87048866  0.08818678    -0.21600
C106        C  0.02851042  0.90643303  0.12757957    -0.21600
C107        C  0.00685070  0.09683949  0.86764271    -0.21600
C108        C  0.00806574  0.13288564  0.90694111    -0.21600
C109        C  0.98412492  0.86933815  0.90116177    -0.22700
C110        C  0.98038911  0.90689873  0.86358886    -0.22700
C111        C  0.98040601  0.09124216  0.13504105    -0.22700
C112        C  0.97875666  0.12901863  0.09761189    -0.22700
C113        C  0.00450277  0.86894618  0.99539421    -0.18000
C114        C  0.00031614  0.99756007  0.13466744    -0.18000
C115        C  0.99295078  0.13136505  0.00226729    -0.18000
C116        C  0.99055045  0.00239704  0.86261996    -0.18000
H117        H  0.04319090  0.83103181  0.09202448     0.14900
H118        H  0.04004378  0.90014431  0.16736599     0.14900
H119        H  0.01399046  0.10448705  0.82698534     0.14900
H120        H  0.01603762  0.17365784  0.90207053     0.14900
H121        H  0.98022359  0.82816575  0.89481576     0.13100
H122        H  0.97298261  0.90039951  0.82279948     0.13100
H123        H  0.97563558  0.09711647  0.17634111     0.13100
H124        H  0.97228828  0.16970228  0.10457360     0.13100
H125        H  0.97895509  0.96785511  0.03084928     0.26400
H126        H  0.97450343  0.02954549  0.96839689     0.26400
N127        N  0.99757084  0.94682303  0.55741499    -0.36400
N128        N  0.99894264  0.05733532  0.55513533    -0.56900
N129        N  0.00484145  0.05462270  0.43945389    -0.36400
N130        N  0.99814620  0.94408410  0.44187182    -0.56900
C131        C  0.98722567  0.95667532  0.60814119     0.27200
C132        C  0.98589143  0.89671467  0.54821780     0.27200
C133        C  0.99476538  0.10508196  0.44815445     0.27200
C134        C  0.99562001  0.04499581  0.38845109     0.27200
C135        C  0.00492130  0.05097769  0.60707449     0.35800
C136        C  0.00796492  0.10776318  0.54481557     0.35800
C137        C  0.00528221  0.89356224  0.45280411     0.35800
C138        C  0.00859817  0.95026196  0.39068887     0.35800
C139        C  0.96923603  0.91199623  0.63149922    -0.21600
C140        C  0.96824414  0.87426309  0.59373784    -0.21600
C141        C  0.97971146  0.12800193  0.40196232    -0.21600
C142        C  0.98023941  0.09013489  0.36439140    -0.21600
C143        C  0.01743039  0.09771887  0.62988705    -0.22700
C144        C  0.01939579  0.13364512  0.59053629    -0.22700
C145        C  0.02015198  0.86752661  0.40827107    -0.22700
C146        C  0.02226641  0.90344590  0.36899004    -0.22700
C147        C  0.99610743  0.00415208  0.63440026    -0.18000
C148        C  0.99457018  0.86961509  0.50112595    -0.18000
C149        C  0.00248715  0.99698849  0.36274397    -0.18000
C150        C  0.00168945  0.13187773  0.49574787    -0.18000
H151        H  0.95838674  0.90691178  0.67169082     0.14900
H152        H  0.95664191  0.83449949  0.59941621     0.14900
H153        H  0.96970193  0.16804775  0.39580938     0.14900
H154        H  0.97050052  0.09531386  0.32393756     0.14900
H155        H  0.02376503  0.10529137  0.67067709     0.13100
H156        H  0.02747311  0.17442059  0.59520288     0.13100
H157        H  0.02781450  0.82666707  0.40426930     0.13100
H158        H  0.03191271  0.89585042  0.32889332     0.13100
H159        H  0.01702699  0.97073793  0.53190558     0.26400
H160        H  0.02199624  0.02991235  0.46579382     0.26400
N161        N  0.49524000  0.94119871  0.94527192    -0.36400
N162        N  0.49716162  0.05241283  0.94288840    -0.56900
N163        N  0.49770281  0.05447473  0.05867165    -0.36400
N164        N  0.50151060  0.94339898  0.06111751    -0.56900
C165        C  0.50134158  0.94848980  0.89334292     0.27200
C166        C  0.50432714  0.89080558  0.95553077     0.27200
C167        C  0.50545408  0.10510047  0.04797769     0.27200
C168        C  0.50624858  0.04741399  0.11022924     0.27200
C169        C  0.49074366  0.04419629  0.89128145     0.35800
C170        C  0.49221793  0.10381011  0.95086121     0.35800
C171        C  0.49693275  0.89189367  0.05341290     0.35800
C172        C  0.49744833  0.95148641  0.11301675     0.35800
C173        C  0.51336329  0.90179795  0.87026838    -0.21600
C174        C  0.51514722  0.86550010  0.90928993    -0.21600
C175        C  0.51819029  0.13068390  0.09355402    -0.21600
C176        C  0.51860379  0.09441740  0.13265547    -0.21600
C177        C  0.48210978  0.09070406  0.86630455    -0.22700
C178        C  0.48311547  0.12837098  0.90388212    -0.22700
C179        C  0.49083997  0.86712347  0.10086493    -0.22700
C180        C  0.49101031  0.90478369  0.13844523    -0.22700
C181        C  0.49543625  0.99577015  0.86586032    -0.18000
C182        C  0.50086886  0.86614587  0.00482836    -0.18000
C183        C  0.50158328  0.00017818  0.13809032    -0.18000
C184        C  0.49887486  0.12973081  0.99905007    -0.18000
H185        H  0.52019642  0.89454534  0.82949779     0.14900
H186        H  0.52336116  0.82491723  0.90396266     0.14900
H187        H  0.52596976  0.17148567  0.09841202     0.14900
H188        H  0.52695957  0.10192909  0.17306949     0.14900
H189        H  0.47636313  0.09695875  0.82519440     0.13100
H190        H  0.47826724  0.16934495  0.89719023     0.13100
H191        H  0.48698937  0.82604433  0.10783876     0.13100
H192        H  0.48727367  0.89842407  0.17979887     0.13100
H193        H  0.48110778  0.96751923  0.97172633     0.26400
H194        H  0.48247605  0.02781202  0.03310755     0.26400
N195        N  0.49938705  0.05618902  0.44581802    -0.36400
N196        N  0.49776140  0.94504839  0.44246286    -0.56900
N197        N  0.49233151  0.94197734  0.55807883    -0.36400
N198        N  0.50048094  0.05305277  0.56159738    -0.56900
C199        C  0.50786615  0.04927043  0.39423203     0.27200
C200        C  0.50854234  0.10642648  0.45695801     0.27200
C201        C  0.49827344  0.89120476  0.54728149     0.27200
C202        C  0.49933727  0.94838929  0.60995113     0.27200
C203        C  0.49423785  0.95389060  0.39067423     0.35800
C204        C  0.49015494  0.89383463  0.44964174     0.35800
C205        C  0.49572961  0.10452745  0.55403486     0.35800
C206        C  0.49348559  0.04449730  0.61308038     0.35800
C207        C  0.52190171  0.09607461  0.37226546    -0.21600
C208        C  0.52236053  0.13203380  0.41169898    -0.21600
C209        C  0.50813041  0.86480366  0.59310851    -0.21600
C210        C  0.50885101  0.90079167  0.63247461    -0.21600
C211        C  0.48510241  0.90789669  0.36481850    -0.22700
C212        C  0.48248421  0.86996758  0.40202942    -0.22700
C213        C  0.48653795  0.12879843  0.60113607    -0.22700
C214        C  0.48525721  0.09087272  0.63842284    -0.22700
C215        C  0.50147848  0.00243316  0.36600501    -0.18000
C216        C  0.50192336  0.13074535  0.50597921    -0.18000
C217        C  0.49572942  0.99561186  0.63793918    -0.18000
C218        C  0.49291435  0.86731605  0.49784060    -0.18000
H219        H  0.53065723  0.10366541  0.33193193     0.14900
H220        H  0.53149493  0.17262123  0.40738447     0.14900
H221        H  0.51404030  0.82371138  0.59785200     0.14900
H222        H  0.51547336  0.89273977  0.67312247     0.14900
H223        H  0.48115922  0.90212246  0.32341538     0.13100
H224        H  0.47613136  0.82927085  0.39471370     0.13100
H225        H  0.48158646  0.16971915  0.60806248     0.13100
H226        H  0.47882364  0.09678702  0.67948039     0.13100
H227        H  0.48303226  0.02989624  0.47120711     0.26400
H228        H  0.47933651  0.96943928  0.53206278     0.26400
C229        C  0.45186352  0.98331947  0.77978483    -0.20100
C230        C  0.49634113  0.99476077  0.80725240    -0.06600
C231        C  0.54088673  0.00550958  0.77878627     0.14200
C232        C  0.53985229  0.00507727  0.72396725    -0.20100
C233        C  0.49530174  0.99400465  0.69650110    -0.06600
C234        C  0.45081673  0.98298987  0.72493230     0.14200
C235        C  0.40201818  0.97177449  0.69723023    -0.23500
H236        H  0.41768574  0.97510309  0.80142950     0.15500
H237        H  0.57395588  0.01362055  0.70231725     0.15500
C238        C  0.58961848  0.01724108  0.80640448    -0.23400
H239        H  0.37061569  0.96464231  0.72492224     0.05800
H240        H  0.40623977  0.93691360  0.67254600     0.09000
H241        H  0.39173485  0.00520774  0.67241620     0.09000
H242        H  0.60005156  0.98410147  0.83153528     0.09000
H243        H  0.58523533  0.05231496  0.83074656     0.09000
H244        H  0.62101082  0.02427023  0.77866905     0.05700
C245        C  0.45722603  0.00814883  0.27991571    -0.20100
C246        C  0.50276848  0.00394711  0.30744427    -0.06600
C247        C  0.54825523  0.99890657  0.27906196     0.14200
C248        C  0.54710580  0.99799598  0.22418088    -0.20100
C249        C  0.50144287  0.00188234  0.19669171    -0.06600
C250        C  0.45605969  0.00711825  0.22512617     0.14200
C251        C  0.40626070  0.01119862  0.19744906    -0.23500
H252        H  0.42230994  0.01166533  0.30151412     0.15500
H253        H  0.58194821  0.99399676  0.20255055     0.15500
C254        C  0.59793872  0.99404557  0.30683476    -0.23400
H255        H  0.37434137  0.01500699  0.22511996     0.05800
H256        H  0.39976711  0.97603638  0.17365202     0.09000
H257        H  0.40649140  0.04565831  0.17175486     0.09000
H258        H  0.59731581  0.95934330  0.33219280     0.09000
H259        H  0.60477477  0.02888308  0.33099012     0.09000
H260        H  0.62986773  0.99017302  0.27918498     0.05700
C261        C  0.03697316  0.99633359  0.77744822    -0.20100
C262        C  0.99114444  0.00361861  0.80392668    -0.06600
C263        C  0.94689870  0.01196768  0.77437927     0.14200
C264        C  0.94940360  0.01238406  0.71950626    -0.20100
C265        C  0.99523618  0.00477278  0.69306065    -0.06600
C266        C  0.03953278  0.99701580  0.72264590     0.14200
C267        C  0.08961049  0.98946203  0.69620723    -0.23500
H268        H  0.07098164  0.99016519  0.79987896     0.15500
H269        H  0.91538435  0.01838629  0.69704600     0.15500
C270        C  0.89696094  0.02003541  0.80090377    -0.23400
H271        H  0.12054765  0.98384199  0.72467339     0.05800
H272        H  0.09885342  0.02393375  0.67228690     0.09000
H273        H  0.08786132  0.95486397  0.67079957     0.09000
H274        H  0.89901340  0.05477658  0.82609511     0.09000
H275        H  0.88760566  0.98576386  0.82507057     0.09000
H276        H  0.86599385  0.02573588  0.77248139     0.05700
C277        C  0.96185626  0.97512932  0.22098619    -0.20100
C278        C  0.00275413  0.99620523  0.19321903    -0.06600
C279        C  0.04391553  0.01708617  0.22160959     0.14200
C280        C  0.04291895  0.01654745  0.27639946    -0.20100
C281        C  0.00195239  0.99561874  0.30413460    -0.06600
C282        C  0.96076802  0.97492891  0.27582026     0.14200
C283        C  0.91481358  0.95419482  0.30340244    -0.23500
H284        H  0.93010332  0.95957931  0.19951285     0.15500
H285        H  0.07448276  0.03270189  0.29774960     0.15500
C286        C  0.08959937  0.04012809  0.19540750    -0.23400
H287        H  0.88534744  0.94126794  0.27561698     0.05800
H288        H  0.89839775  0.98484002  0.32831249     0.09000
H289        H  0.92508852  0.92058943  0.32786842     0.09000
H290        H  0.09324133  0.08146276  0.20642301     0.09000
H291        H  0.08790909  0.03774128  0.15251495     0.09000
H292        H  0.12390930  0.01925174  0.20822862     0.05700
C293        C  0.54041072  0.27218319  0.51771251    -0.20100
C294        C  0.49446354  0.29718882  0.50729910    -0.06600
C295        C  0.45066932  0.26685364  0.49799908     0.14200
C296        C  0.45445763  0.21275952  0.49777021    -0.20100
C297        C  0.50055162  0.18819616  0.50690218    -0.06600
C298        C  0.54394367  0.21803823  0.51749199     0.14200
C299        C  0.59390741  0.19262411  0.52803905    -0.23500
H300        H  0.57396956  0.29510723  0.52507119     0.15500
H301        H  0.42123269  0.18927858  0.49052503     0.15500
C302        C  0.39947434  0.29081514  0.48997124    -0.23400
H303        H  0.62417538  0.22154310  0.53526805     0.05800
H304        H  0.60511920  0.16881824  0.49412994     0.09000
H305        H  0.59079395  0.16744762  0.56280642     0.09000
H306        H  0.39883880  0.31309503  0.45319264     0.09000
H307        H  0.39036824  0.31662277  0.52307767     0.09000
H308        H  0.36923932  0.26107051  0.48741398     0.05700
C309        C  0.44780639  0.72751216  0.49805549    -0.20100
C310        C  0.49357018  0.70072596  0.49260932    -0.06600
C311        C  0.53928379  0.72929625  0.48893991     0.14200
C312        C  0.53781194  0.78350830  0.49069234    -0.20100
C313        C  0.49210145  0.80985113  0.49617351    -0.06600
C314        C  0.44656679  0.78172801  0.49966180     0.14200
C315        C  0.39680601  0.80908348  0.50507004    -0.23500
H316        H  0.41278105  0.70591347  0.50090421     0.15500
H317        H  0.57253614  0.80566149  0.48814694     0.15500
C318        C  0.58995180  0.70324042  0.48522176    -0.23400
H319        H  0.36474286  0.78139011  0.50729130     0.05800
H320        H  0.39069690  0.83467596  0.47106858     0.09000
H321        H  0.39682772  0.83275579  0.54099737     0.09000
H322        H  0.59286307  0.68156672  0.44820749     0.09000
H323        H  0.59496973  0.67646496  0.51849462     0.09000
H324        H  0.62149505  0.73163153  0.48605808     0.05700
C325        C  0.46032198  0.27134410  0.99994140    -0.20100
C326        C  0.50745953  0.29626963  0.99691313    -0.06600
C327        C  0.55186989  0.26606820  0.99472105     0.14200
C328        C  0.54785018  0.21190479  0.99452374    -0.20100
C329        C  0.50079277  0.18726374  0.99809484    -0.06600
C330        C  0.45657330  0.21719525  0.00155356     0.14200
C331        C  0.40563264  0.19187277  0.00755477    -0.23500
H332        H  0.42633811  0.29440419  0.00223459     0.15500
H333        H  0.58159048  0.18848375  0.99223963     0.15500
C334        C  0.60348398  0.29052895  0.99139299    -0.23400
H335        H  0.37494803  0.22084838  0.01025727     0.05800
H336        H  0.40499665  0.16815923  0.04349517     0.09000
H337        H  0.39786021  0.16661475  0.97366869     0.09000
H338        H  0.61148654  0.31280373  0.02726271     0.09000
H339        H  0.60544829  0.31662673  0.95722891     0.09000
H340        H  0.63358526  0.26107940  0.98722330     0.05700
C341        C  0.54996266  0.78439851  0.00373348    -0.20100
C342        C  0.50284191  0.80870680  0.00556147    -0.06600
C343        C  0.45843266  0.77855158  0.00707734     0.14200
C344        C  0.46216736  0.72451315  0.00708289    -0.20100
C345        C  0.50922660  0.69988202  0.00416579    -0.06600
C346        C  0.55380163  0.73029044  0.00243718     0.14200
C347        C  0.60546781  0.70619979  0.00059624    -0.23500
H348        H  0.58380422  0.80805213  0.00263571     0.15500
H349        H  0.42802246  0.70131840  0.00816406     0.15500
C350        C  0.40717127  0.80346147  0.00798208    -0.23400
H351        H  0.63587474  0.73581970  0.00245239     0.05800
H352        H  0.61040612  0.68454999  0.96379708     0.09000
H353        H  0.61028605  0.67963393  0.03406265     0.09000
H354        H  0.40241934  0.82793254  0.97292858     0.09000
H355        H  0.40328463  0.82786646  0.04314369     0.09000
H356        H  0.37635306  0.77423821  0.00846429     0.05700
C357        C  0.54188021  0.51546587  0.71732370    -0.20100
C358        C  0.49420008  0.51075150  0.69438175    -0.06600
C359        C  0.45075651  0.50516689  0.72544769     0.14200
C360        C  0.45632593  0.50338814  0.77929325    -0.20100
C361        C  0.50410270  0.50746485  0.80237747    -0.06600
C362        C  0.54751127  0.51411171  0.77115153     0.14200
C363        C  0.59989865  0.51740942  0.79382252    -0.23500
H364        H  0.57496233  0.51950732  0.69281576     0.15500
H365        H  0.42319135  0.49860434  0.80356853     0.15500
C366        C  0.39896531  0.49875827  0.70209145    -0.23400
H367        H  0.62931202  0.51914645  0.76311875     0.05800
H368        H  0.60734814  0.48282482  0.81813006     0.09000
H369        H  0.60379672  0.55289186  0.81766264     0.09000
H370        H  0.39846859  0.46484299  0.67569560     0.09000
H371        H  0.38867388  0.53402213  0.68005238     0.09000
H372        H  0.36967374  0.49250639  0.73233417     0.05700
C373        C  0.46008330  0.49318747  0.21828937    -0.20100
C374        C  0.50768829  0.49240384  0.19461068    -0.06600
C375        C  0.55183865  0.49129042  0.22520886     0.14200
C376        C  0.54700512  0.49101104  0.27918763    -0.20100
C377        C  0.49934144  0.49131243  0.30277123    -0.06600
C378        C  0.45525693  0.49245730  0.27218372     0.14200
C379        C  0.40327957  0.49503196  0.29593242    -0.23500
H380        H  0.42644659  0.49427024  0.19438708     0.15500
H381        H  0.58057633  0.49059663  0.30321456     0.15500
C382        C  0.60389232  0.49248816  0.20150358    -0.23400
H383        H  0.37346969  0.49870252  0.26589603     0.05800
H384        H  0.40068353  0.52910261  0.32197784     0.09000
H385        H  0.39533680  0.45927104  0.31831989     0.09000
H386        H  0.60792981  0.52694139  0.17609127     0.09000
H387        H  0.61036468  0.45690404  0.17848357     0.09000
H388        H  0.63380367  0.49451880  0.23161552     0.05700
C389        C  0.03863141  0.27350724  0.48231864    -0.20100
C390        C  0.99324447  0.29833742  0.49553818    -0.06600
C391        C  0.95019527  0.26773478  0.50756905     0.14200
C392        C  0.95412450  0.21362805  0.50690876    -0.20100
C393        C  0.99965809  0.18930423  0.49456147    -0.06600
C394        C  0.04234372  0.21941405  0.48188049     0.14200
C395        C  0.09187952  0.19435914  0.46858468    -0.23500
H396        H  0.07170480  0.29652806  0.47308557     0.15500
H397        H  0.92151070  0.18993933  0.51620705     0.15500
C398        C  0.89961601  0.29133444  0.51975854    -0.23400
H399        H  0.12168119  0.22348186  0.46010861     0.05800
H400        H  0.08726853  0.16951630  0.43378427     0.09000
H401        H  0.10471682  0.17027944  0.50167950     0.09000
H402        H  0.88796784  0.31727435  0.48762434     0.09000
H403        H  0.90162254  0.31336941  0.55662848     0.09000
H404        H  0.86979612  0.26141197  0.52454819     0.05700
C405        C  0.03571385  0.78582329  0.52052219    -0.20100
C406        C  0.99315579  0.81214151  0.50261282    -0.06600
C407        C  0.95094326  0.78391131  0.48497056     0.14200
C408        C  0.95217983  0.72967873  0.48594421    -0.20100
C409        C  0.99481231  0.70271717  0.50389074    -0.06600
C410        C  0.03745368  0.73157477  0.52111112     0.14200
C411        C  0.08569299  0.70619294  0.53857655    -0.23500
H412        H  0.06809448  0.80809773  0.53341004     0.15500
H413        H  0.91943585  0.70826872  0.47264331     0.15500
C414        C  0.90456324  0.81109329  0.46534529    -0.23400
H415        H  0.11559985  0.73504124  0.54751939     0.05800
H416        H  0.10026880  0.68067612  0.50738657     0.09000
H417        H  0.07893907  0.68349228  0.57447863     0.09000
H418        H  0.91423623  0.83501884  0.43095180     0.09000
H419        H  0.88915281  0.83637482  0.49628584     0.09000
H420        H  0.87460798  0.78328323  0.45372212     0.05700
C421        C  0.71481901  0.45414971  0.50845280    -0.20100
C422        C  0.68932615  0.50126745  0.50301364    -0.06600
C423        C  0.71757892  0.54763652  0.49879690     0.14200
C424        C  0.77045701  0.54534786  0.49831351    -0.20100
C425        C  0.79604007  0.49817495  0.50296511    -0.06600
C426        C  0.76772642  0.45187189  0.50850694     0.14200
C427        C  0.79262093  0.39969679  0.51268298    -0.23500
H428        H  0.69312262  0.41868588  0.51184428     0.15500
H429        H  0.79206601  0.58086645  0.49499590     0.15500
C430        C  0.69252288  0.59985208  0.49685555    -0.23400
H431        H  0.76450919  0.36773630  0.51336445     0.05800
H432        H  0.81469267  0.39722576  0.54916066     0.09000
H433        H  0.81782703  0.39345645  0.47883836     0.09000
H434        H  0.66734238  0.60453931  0.53099533     0.09000
H435        H  0.67036685  0.60384968  0.46059652     0.09000
H436        H  0.72055655  0.63187401  0.49754833     0.05700
C437        C  0.21389917  0.45358455  0.48771313    -0.20100
C438        C  0.18899995  0.50080949  0.49526951    -0.06600
C439        C  0.21794966  0.54656041  0.50098469     0.14200
C440        C  0.27078941  0.54352333  0.50034262    -0.20100
C441        C  0.29579810  0.49621035  0.49368470    -0.06600
C442        C  0.26679823  0.45054799  0.48694499     0.14200
C443        C  0.29093205  0.39821118  0.48075864    -0.23500
H444        H  0.19174851  0.41854481  0.48326646     0.15500
H445        H  0.29283832  0.57862710  0.50475966     0.15500
C446        C  0.19374039  0.59899678  0.50610200    -0.23400
H447        H  0.26237478  0.36670536  0.47908696     0.05800
H448        H  0.31613997  0.39035536  0.51421486     0.09000
H449        H  0.31287430  0.39681349  0.44409809     0.09000
H450        H  0.17240743  0.60147258  0.54307084     0.09000
H451        H  0.16796422  0.60582114  0.47286092     0.09000
H452        H  0.22223167  0.63060036  0.50634785     0.05700
C453        C  0.04399223  0.21204559  0.00904115    -0.20100
C454        C  0.99638915  0.18877379  0.00401631    -0.06600
C455        C  0.95303932  0.21990101  0.00075754     0.14200
C456        C  0.95833399  0.27385863  0.00159450    -0.20100
C457        C  0.00598642  0.29760441  0.00615446    -0.06600
C458        C  0.04945739  0.26611070  0.01022327     0.14200
C459        C  0.10175341  0.28890365  0.01393949    -0.23500
H460        H  0.07702589  0.18762297  0.01162253     0.15500
H461        H  0.92491191  0.29770446  0.99883870     0.15500
C462        C  0.90127897  0.19606622  0.99638528    -0.23400
H463        H  0.13121832  0.25849739  0.01397283     0.05800
H464        H  0.10570424  0.31109898  0.05055228     0.09000
H465        H  0.10894025  0.31469615  0.98025109     0.09000
H466        H  0.89359644  0.17145702  0.03083003     0.09000
H467        H  0.89910310  0.17196592  0.96082032     0.09000
H468        H  0.87136286  0.22591478  0.99417065     0.05700
C469        C  0.05137428  0.78678508  0.98039032    -0.20100
C470        C  0.00659606  0.81144643  0.99505065    -0.06600
C471        C  0.96415311  0.78155863  0.00899033     0.14200
C472        C  0.96731026  0.72752656  0.00786831    -0.20100
C473        C  0.01197979  0.70223798  0.99313628    -0.06600
C474        C  0.05478216  0.73251920  0.97928627     0.14200
C475        C  0.10452928  0.70841662  0.96479754    -0.23500
H476        H  0.08380334  0.81026161  0.96995193     0.15500
H477        H  0.93435534  0.70487868  0.01837037     0.15500
C478        C  0.91537987  0.80680503  0.02478370    -0.23400
H479        H  0.13425597  0.73807132  0.95805891     0.05800
H480        H  0.10047182  0.68587051  0.92841063     0.09000
H481        H  0.11757482  0.68280356  0.99662070     0.09000
H482        H  0.90147659  0.83159649  0.99270257     0.09000
H483        H  0.92152431  0.83093570  0.05983906     0.09000
H484        H  0.88564286  0.77782278  0.03395057     0.05700
C485        C  0.73213632  0.45519104  0.00690673    -0.20100
C486        C  0.70621236  0.50173030  0.99881213    -0.06600
C487        C  0.73424952  0.54821696  0.99299530     0.14200
C488        C  0.78718452  0.54663556  0.99524076    -0.20100
C489        C  0.81293317  0.49984906  0.00170099    -0.06600
C490        C  0.78503228  0.45351850  0.00791355     0.14200
C491        C  0.81063467  0.40237262  0.01713541    -0.23500
H492        H  0.71084080  0.41964373  0.01174481     0.15500
H493        H  0.80874202  0.58206670  0.99074789     0.15500
C494        C  0.70898178  0.59983699  0.98563169    -0.23400
H495        H  0.78290644  0.37085042  0.02430182     0.05800
H496        H  0.83559407  0.40516188  0.05161984     0.09000
H497        H  0.83322015  0.39132959  0.98264458     0.09000
H498        H  0.68227467  0.60704696  0.01802246     0.09000
H499        H  0.68848858  0.60056930  0.94810311     0.09000
H500        H  0.73674307  0.63211100  0.98495888     0.05700
C501        C  0.28724121  0.54546323  0.00007278    -0.20100
C502        C  0.31261225  0.49793440  0.99920499    -0.06600
C503        C  0.28426309  0.45144646  0.99935798     0.14200
C504        C  0.23138506  0.45378741  0.99995852    -0.20100
C505        C  0.20604637  0.50125445  0.99927165    -0.06600
C506        C  0.23430817  0.54777600  0.99955731     0.14200
C507        C  0.20901451  0.59986652  0.00096914    -0.23500
H508        H  0.30901896  0.58102889  0.00041459     0.15500
H509        H  0.20957757  0.41823528  0.00016909     0.15500
C510        C  0.30933237  0.39923763  0.00049947    -0.23400
H511        H  0.23690878  0.63187732  0.00402161     0.05800
H512        H  0.18346727  0.60212418  0.03507208     0.09000
H513        H  0.18705335  0.60604730  0.96487690     0.09000
H514        H  0.33506684  0.39677132  0.03438696     0.09000
H515        H  0.33097369  0.39299519  0.96418053     0.09000
H516        H  0.28132433  0.36734415  0.00377151     0.05700
C517        C  0.04498043  0.49414597  0.71915988    -0.20100
C518        C  0.99736696  0.49378147  0.69560386    -0.06600
C519        C  0.95320154  0.49200026  0.72624681     0.14200
C520        C  0.95798459  0.49106589  0.78016119    -0.20100
C521        C  0.00558919  0.49244377  0.80371906    -0.06600
C522        C  0.04975461  0.49330197  0.77306862     0.14200
C523        C  0.10181157  0.49178709  0.79666678    -0.23500
H524        H  0.07861287  0.49484653  0.69516015     0.15500
H525        H  0.92434383  0.49059199  0.80415313     0.15500
C526        C  0.90112134  0.49335483  0.70269111    -0.23400
H527        H  0.13163705  0.48894803  0.76650246     0.05800
H528        H  0.10516398  0.45761409  0.82251501     0.09000
H529        H  0.10915523  0.52758073  0.81914157     0.09000
H530        H  0.89431336  0.45795942  0.67940671     0.09000
H531        H  0.89731098  0.52803318  0.67760347     0.09000
H532        H  0.87124174  0.49510470  0.73289020     0.05700
C533        C  0.99841501  0.55015892  0.22057478    -0.20100
C534        C  0.00548384  0.50279288  0.19517882    -0.06600
C535        C  0.00710566  0.45638319  0.22402389     0.14200
C536        C  0.00158354  0.45873536  0.27775690    -0.20100
C537        C  0.99465695  0.50602422  0.30320627    -0.06600
C538        C  0.99329572  0.55249250  0.27448776     0.14200
C539        C  0.98842239  0.60457061  0.30026017    -0.23500
H540        H  0.99740445  0.58557983  0.19808709     0.15500
H541        H  0.00256541  0.42327186  0.30018669     0.15500
C542        C  0.01296807  0.40414439  0.19869942    -0.23400
H543        H  0.99097977  0.63667976  0.27172511     0.05800
H544        H  0.01918110  0.60990094  0.32902895     0.09000
H545        H  0.95130975  0.60757991  0.31994270     0.09000
H546        H  0.05052655  0.40130122  0.17988915     0.09000
H547        H  0.98281208  0.39824753  0.16937938     0.09000
H548        H  0.01019850  0.37216797  0.22736059     0.05700
loop_ 
_geom_bond_atom_site_label_1 
_geom_bond_atom_site_label_2 
_geom_bond_distance 
_geom_bond_site_symmetry_2 
_ccdc_geom_bond_type 
Zn1           O5   1.951       .  S
Zn1           O6   2.022       .  S
Zn1          O10   1.980       .  S
Zn1          O17   2.010       .  S
Zn2           O5   1.951   1_654  S
Zn2           O7   2.024       .  S
Zn2           O9   2.010       .  S
Zn2          O13   1.977       .  S
Zn3           O5   1.946   1_655  S
Zn3           O8   1.978       .  S
Zn3          O11   2.004       .  S
Zn3          O14   2.007       .  S
Zn4           O5   1.953   1_554  S
Zn4          O12   2.029       .  S
Zn4          O15   1.982       .  S
Zn4          O16   2.015       .  S
O6           C18   1.272       .  A
O7           C19   1.273       .  A
O8           C20   1.271   1_655  A
O9           C18   1.273   1_654  A
O10          C20   1.271       .  A
O11          C19   1.270   1_556  A
O12          C21   1.272       .  A
O13          C22   1.271   1_655  A
O14          C21   1.271   1_656  A
O15          C22   1.271       .  A
O16          C23   1.273   1_554  A
O17          C23   1.271       .  A
C18         C473   1.490       .  S
C19         C489   1.479       .  S
C20         C521   1.459       .  S
C21         C457   1.486       .  S
C22         C534   1.462       .  S
C23         C505   1.478       .  S
Zn24         O28   1.945   1_455  S
Zn24         O29   2.009       .  S
Zn24         O33   1.981       .  S
Zn24         O40   2.009       .  S
Zn25         O28   1.947   1_455  S
Zn25         O30   2.014       .  S
Zn25         O32   2.009       .  S
Zn25         O36   1.966       .  S
Zn26         O28   1.945       .  S
Zn26         O31   1.976       .  S
Zn26         O34   2.012       .  S
Zn26         O37   2.003       .  S
Zn27         O28   1.958       .  S
Zn27         O35   2.025       .  S
Zn27         O38   1.994       .  S
Zn27         O39   2.025       .  S
O29          C41   1.271       .  A
O30          C42   1.272   1_455  A
O31          C43   1.269       .  A
O32          C41   1.271       .  A
O33          C43   1.271   1_455  A
O34          C42   1.271       .  A
O35          C44   1.275       .  A
O36          C45   1.270   1_455  A
O37          C44   1.270       .  A
O38          C45   1.272       .  A
O39          C46   1.274       .  A
O40          C46   1.271   1_455  A
C41         C438   1.483       .  S
C42         C390   1.487       .  S
C43         C518   1.459       .  S
C44         C425   1.483       .  S
C45         C537   1.461       .  S
C46         C409   1.493       .  S
Zn47         O51   1.950       .  S
Zn47         O52   2.008       .  S
Zn47         O56   2.012       .  S
Zn47         O63   1.979       .  S
Zn48         O51   1.953   1_554  S
Zn48         O53   1.984       .  S
Zn48         O55   2.016       .  S
Zn48         O59   2.019       .  S
Zn49         O51   1.951   1_554  S
Zn49         O54   2.012       .  S
Zn49         O57   1.978       .  S
Zn49         O60   2.014       .  S
Zn50         O51   1.951       .  S
Zn50         O58   2.011       .  S
Zn50         O61   2.025       .  S
Zn50         O62   1.989       .  S
O52          C64   1.271       .  A
O53          C65   1.271       .  A
O54          C66   1.272       .  A
O55          C64   1.273   1_554  A
O56          C66   1.271   1_556  A
O57          C65   1.272       .  A
O58          C67   1.271       .  A
O59          C68   1.272   1_554  A
O60          C67   1.272   1_554  A
O61          C68   1.273       .  A
O62          C69   1.273       .  A
O63          C69   1.270       .  A
C64         C486   1.485       .  S
C65         C374   1.460       .  S
C66         C345   1.481       .  S
C67         C502   1.480       .  S
C68         C326   1.483       .  S
C69         C361   1.463       .  S
Zn70         O74   1.955       .  S
Zn70         O75   1.993       .  S
Zn70         O79   2.016       .  S
Zn70         O86   2.021       .  S
Zn71         O74   1.952       .  S
Zn71         O76   2.020       .  S
Zn71         O78   1.971       .  S
Zn71         O82   2.011       .  S
Zn72         O74   1.948       .  S
Zn72         O77   2.017       .  S
Zn72         O80   2.012       .  S
Zn72         O83   1.985       .  S
Zn73         O74   1.946       .  S
Zn73         O81   1.977       .  S
Zn73         O84   2.004       .  S
Zn73         O85   2.011       .  S
O75          C87   1.272       .  A
O76          C88   1.273       .  A
O77          C89   1.272       .  A
O78          C87   1.271       .  A
O79          C89   1.273       .  A
O80          C88   1.271       .  A
O81          C90   1.271       .  A
O82          C91   1.271       .  A
O83          C90   1.271       .  A
O84          C91   1.270       .  A
O85          C92   1.271       .  A
O86          C92   1.273       .  A
C87         C358   1.457       .  S
C88         C294   1.486       .  S
C89         C441   1.486       .  S
C90         C377   1.458       .  S
C91         C422   1.480       .  S
C92         C310   1.485       .  S
N93          C98   1.360   1_655  A
N93          C97   1.353   1_655  A
N93         H125   1.038       .  S
N94         C101   1.353       .  A
N94         C102   1.358       .  A
N95         C100   1.354       .  A
N95          C99   1.361       .  A
N95         H126   1.037       .  S
N96         C103   1.357       .  A
N96         C104   1.351       .  A
C97         C105   1.389       .  A
C97         C113   1.422   1_554  A
C98         C114   1.421       .  A
C98         C106   1.385       .  A
C99         C107   1.385   1_655  A
C99         C116   1.423       .  A
C100        C115   1.424   1_556  A
C100        C108   1.389   1_655  A
C101        C113   1.421   1_655  A
C101        C109   1.388       .  A
C102        C116   1.420   1_565  A
C102        C110   1.384       .  A
C103        C111   1.384       .  A
C103        C114   1.418   1_645  A
C104        C112   1.389       .  A
C104        C115   1.419       .  A
C105        C106   1.378       .  A
C105        H117   1.082       .  S
C106        H118   1.082       .  S
C107        C108   1.377       .  A
C107        H119   1.082       .  S
C108        H120   1.082       .  S
C109        C110   1.375       .  A
C109        H121   1.082       .  S
C110        H122   1.082       .  S
C111        C112   1.374       .  A
C111        H123   1.082       .  S
C112        H124   1.082       .  S
C113        C470   1.489       .  S
C114        C278   1.510       .  S
C115        C454   1.489       .  S
C116        C262   1.513       .  S
N127        C132   1.353       .  A
N127        C131   1.360       .  A
N127        H159   1.038   1_655  S
N128        C135   1.358   1_655  A
N128        C136   1.352   1_655  A
N129        C134   1.360   1_455  A
N129        C133   1.353   1_455  A
N129        H160   1.039       .  S
N130        C137   1.351   1_655  A
N130        C138   1.357   1_655  A
C131        C139   1.386       .  A
C131        C147   1.422   1_565  A
C132        C148   1.421       .  A
C132        C140   1.388       .  A
C133        C141   1.389       .  A
C133        C150   1.421   1_655  A
C134        C149   1.420   1_645  A
C134        C142   1.385       .  A
C135        C147   1.419   1_455  A
C135        C143   1.384       .  A
C136        C150   1.420       .  A
C136        C144   1.388       .  A
C137        C145   1.389       .  A
C137        C148   1.418   1_455  A
C138        C146   1.384       .  A
C138        C149   1.417       .  A
C139        C140   1.379       .  A
C139        H151   1.082       .  S
C140        H152   1.082       .  S
C141        C142   1.378       .  A
C141        H153   1.082       .  S
C142        H154   1.082       .  S
C143        C144   1.376       .  A
C143        H155   1.082       .  S
C144        H156   1.082       .  S
C145        C146   1.375       .  A
C145        H157   1.082       .  S
C146        H158   1.082       .  S
C147        C265   1.512       .  S
C148        C406   1.488       .  S
C149        C281   1.511       .  S
C150        C393   1.487   1_455  S
N161        C166   1.353       .  A
N161        C165   1.361       .  A
N161        H193   1.035       .  S
N162        C169   1.357       .  A
N162        C170   1.353       .  A
N163        C168   1.360       .  A
N163        C167   1.353       .  A
N163        H194   1.035       .  S
N164        C171   1.352       .  A
N164        C172   1.358       .  A
C165        C173   1.385       .  A
C165        C181   1.422       .  A
C166        C182   1.424   1_556  A
C166        C174   1.390       .  A
C167        C175   1.390       .  A
C167        C184   1.423   1_554  A
C168        C183   1.422       .  A
C168        C176   1.385       .  A
C169        C181   1.420   1_545  A
C169        C177   1.384       .  A
C170        C184   1.422       .  A
C170        C178   1.389       .  A
C171        C179   1.389       .  A
C171        C182   1.422       .  A
C172        C180   1.384       .  A
C172        C183   1.420   1_565  A
C173        C174   1.376       .  A
C173        H185   1.082       .  S
C174        H186   1.082       .  S
C175        C176   1.376       .  A
C175        H187   1.082       .  S
C176        H188   1.082       .  S
C177        C178   1.374       .  A
C177        H189   1.082       .  S
C178        H190   1.082       .  S
C179        C180   1.374       .  A
C179        H191   1.082       .  S
C180        H192   1.082       .  S
C181        C230   1.510       .  S
C182        C342   1.487       .  S
C183        C249   1.511       .  S
C184        C329   1.489       .  S
N195        C200   1.352       .  A
N195        C199   1.360       .  A
N195        H227   1.037       .  S
N196        C203   1.357       .  A
N196        C204   1.352       .  A
N197        C202   1.360       .  A
N197        C201   1.353       .  A
N197        H228   1.037       .  S
N198        C205   1.352       .  A
N198        C206   1.357       .  A
C199        C207   1.386       .  A
C199        C215   1.423       .  A
C200        C216   1.422       .  A
C200        C208   1.389       .  A
C201        C209   1.389       .  A
C201        C218   1.423       .  A
C202        C217   1.423       .  A
C202        C210   1.385       .  A
C203        C215   1.420   1_565  A
C203        C211   1.385       .  A
C204        C218   1.421       .  A
C204        C212   1.388       .  A
C205        C213   1.389       .  A
C205        C216   1.421       .  A
C206        C214   1.384       .  A
C206        C217   1.419   1_545  A
C207        C208   1.378       .  A
C207        H219   1.082       .  S
C208        H220   1.082       .  S
C209        C210   1.377       .  A
C209        H221   1.082       .  S
C210        H222   1.082       .  S
C211        C212   1.373       .  A
C211        H223   1.082       .  S
C212        H224   1.082       .  S
C213        C214   1.373       .  A
C213        H225   1.082       .  S
C214        H226   1.082       .  S
C215        C246   1.510       .  S
C216        C297   1.487       .  S
C217        C233   1.509       .  S
C218        C313   1.488       .  S
C229        C230   1.406       .  A
C229        C234   1.414       .  A
C229        H236   1.084       .  S
C230        C231   1.416   1_565  A
C231        C232   1.413       .  A
C231        C238   1.505       .  S
C232        C233   1.406   1_545  A
C232        H237   1.084       .  S
C233        C234   1.415       .  A
C234        C235   1.505       .  S
C235        H239   1.111       .  S
C235        H240   1.110       .  S
C235        H241   1.110   1_565  S
C238        H242   1.110   1_545  S
C238        H243   1.110       .  S
C238        H244   1.111       .  S
C245        C246   1.405       .  A
C245        C250   1.412       .  A
C245        H252   1.084       .  S
C246        C247   1.416   1_545  A
C247        C248   1.415       .  A
C247        C254   1.505       .  S
C248        C249   1.407   1_565  A
C248        H253   1.084       .  S
C249        C250   1.415       .  A
C250        C251   1.505       .  S
C251        H255   1.111       .  S
C251        H256   1.110   1_545  S
C251        H257   1.110       .  S
C254        H258   1.110       .  S
C254        H259   1.110   1_565  S
C254        H260   1.111       .  S
C261        C262   1.406   1_465  A
C261        C266   1.414       .  A
C261        H268   1.084       .  S
C262        C263   1.416       .  A
C263        C264   1.415       .  A
C263        C270   1.505       .  S
C264        C265   1.407       .  A
C264        H269   1.084       .  S
C265        C266   1.415   1_645  A
C266        C267   1.505       .  S
C267        H271   1.111       .  S
C267        H272   1.110   1_565  S
C267        H273   1.110       .  S
C270        H274   1.110       .  S
C270        H275   1.110   1_545  S
C270        H276   1.111       .  S
C277        C278   1.406   1_655  A
C277        C282   1.413       .  A
C277        H284   1.084       .  S
C278        C279   1.419   1_565  A
C279        C280   1.412       .  A
C279        C286   1.506       .  S
C280        C281   1.406   1_545  A
C280        H285   1.084       .  S
C281        C282   1.417   1_455  A
C282        C283   1.506       .  S
C283        H287   1.111       .  S
C283        H288   1.110       .  S
C283        H289   1.109       .  S
C286        H290   1.110       .  S
C286        H291   1.108       .  S
C286        H292   1.110       .  S
C293        C294   1.408       .  A
C293        C298   1.404       .  A
C293        H300   1.084       .  S
C294        C295   1.419       .  A
C295        C296   1.404       .  A
C295        C302   1.509       .  S
C296        C297   1.400       .  A
C296        H301   1.084       .  S
C297        C298   1.409       .  A
C298        C299   1.506       .  S
C299        H303   1.111       .  S
C299        H304   1.110       .  S
C299        H305   1.110       .  S
C302        H306   1.109       .  S
C302        H307   1.111       .  S
C302        H308   1.111       .  S
C309        C310   1.407       .  A
C309        C314   1.404       .  A
C309        H316   1.084       .  S
C310        C311   1.420       .  A
C311        C312   1.404       .  A
C311        C318   1.508       .  S
C312        C313   1.400       .  A
C312        H317   1.084       .  S
C313        C314   1.409       .  A
C314        C315   1.506       .  S
C315        H319   1.111       .  S
C315        H320   1.110       .  S
C315        H321   1.110       .  S
C318        H322   1.109       .  S
C318        H323   1.110       .  S
C318        H324   1.111       .  S
C325        C326   1.406       .  A
C325        C330   1.405   1_556  A
C325        H332   1.084   1_556  S
C326        C327   1.417       .  A
C327        C328   1.405       .  A
C327        C334   1.507       .  S
C328        C329   1.401       .  A
C328        H333   1.084       .  S
C329        C330   1.410   1_556  A
C330        C331   1.506       .  S
C331        H335   1.111       .  S
C331        H336   1.111       .  S
C331        H337   1.110   1_554  S
C334        H338   1.110   1_556  S
C334        H339   1.110       .  S
C334        H340   1.111       .  S
C341        C342   1.402       .  A
C341        C346   1.405       .  A
C341        H348   1.084       .  S
C342        C343   1.410       .  A
C343        C344   1.402       .  A
C343        C350   1.507       .  S
C344        C345   1.405       .  A
C344        H349   1.084       .  S
C345        C346   1.417       .  A
C346        C347   1.508       .  S
C347        H351   1.111       .  S
C347        H352   1.109   1_554  S
C347        H353   1.110       .  S
C350        H354   1.110   1_554  S
C350        H355   1.110       .  S
C350        H356   1.111       .  S
C357        C358   1.401       .  A
C357        C362   1.395       .  A
C357        H364   1.085       .  S
C358        C359   1.409       .  A
C359        C360   1.396       .  A
C359        C366   1.508       .  S
C360        C361   1.403       .  A
C360        H365   1.084       .  S
C361        C362   1.413       .  A
C362        C363   1.509       .  S
C363        H367   1.111       .  S
C363        H368   1.110       .  S
C363        H369   1.109       .  S
C366        H370   1.111       .  S
C366        H371   1.110       .  S
C366        H372   1.111       .  S
C373        C374   1.401       .  A
C373        C378   1.394       .  A
C373        H380   1.085       .  S
C374        C375   1.412       .  A
C375        C376   1.397       .  A
C375        C382   1.509       .  S
C376        C377   1.401       .  A
C376        H381   1.085       .  S
C377        C378   1.410       .  A
C378        C379   1.509       .  S
C379        H383   1.111       .  S
C379        H384   1.111       .  S
C379        H385   1.109       .  S
C382        H386   1.111       .  S
C382        H387   1.109       .  S
C382        H388   1.111       .  S
C389        C390   1.408   1_455  A
C389        C394   1.404       .  A
C389        H396   1.084       .  S
C390        C391   1.420       .  A
C391        C392   1.404       .  A
C391        C398   1.508       .  S
C392        C393   1.400       .  A
C392        H397   1.084       .  S
C393        C394   1.409   1_655  A
C394        C395   1.506       .  S
C395        H399   1.111       .  S
C395        H400   1.110       .  S
C395        H401   1.110       .  S
C398        H402   1.110       .  S
C398        H403   1.109       .  S
C398        H404   1.111       .  S
C405        C406   1.399   1_455  A
C405        C410   1.405       .  A
C405        H412   1.084       .  S
C406        C407   1.409       .  A
C407        C408   1.404       .  A
C407        C414   1.507       .  S
C408        C409   1.409       .  A
C408        H413   1.084       .  S
C409        C410   1.423   1_655  A
C410        C411   1.509       .  S
C411        H415   1.111       .  S
C411        H416   1.110       .  S
C411        H417   1.109       .  S
C414        H418   1.110       .  S
C414        H419   1.110       .  S
C414        H420   1.111       .  S
C421        C422   1.403       .  A
C421        C426   1.404       .  A
C421        H428   1.084       .  S
C422        C423   1.416       .  A
C423        C424   1.403       .  A
C423        C430   1.509       .  S
C424        C425   1.404       .  A
C424        H429   1.084       .  S
C425        C426   1.418       .  A
C426        C427   1.509       .  S
C427        H431   1.111       .  S
C427        H432   1.110       .  S
C427        H433   1.110       .  S
C430        H434   1.111       .  S
C430        H435   1.109       .  S
C430        H436   1.111       .  S
C437        C438   1.405       .  A
C437        C442   1.405       .  A
C437        H444   1.084       .  S
C438        C439   1.416       .  A
C439        C440   1.403       .  A
C439        C446   1.509       .  S
C440        C441   1.405       .  A
C440        H445   1.084       .  S
C441        C442   1.418       .  A
C442        C443   1.509       .  S
C443        H447   1.111       .  S
C443        H448   1.110       .  S
C443        H449   1.109       .  S
C446        H450   1.109       .  S
C446        H451   1.111       .  S
C446        H452   1.111       .  S
C453        C454   1.402   1_455  A
C453        C458   1.406       .  A
C453        H460   1.084       .  S
C454        C455   1.409       .  A
C455        C456   1.403       .  A
C455        C462   1.506   1_554  S
C456        C457   1.407   1_655  A
C456        H461   1.084   1_554  S
C457        C458   1.418       .  A
C458        C459   1.507       .  S
C459        H463   1.111       .  S
C459        H464   1.109       .  S
C459        H465   1.110   1_554  S
C462        H466   1.110   1_556  S
C462        H467   1.110       .  S
C462        H468   1.111       .  S
C469        C470   1.402       .  A
C469        C474   1.408       .  A
C469        H476   1.084       .  S
C470        C471   1.409   1_456  A
C471        C472   1.401       .  A
C471        C478   1.507       .  S
C472        C473   1.407   1_654  A
C472        H477   1.084       .  S
C473        C474   1.421       .  A
C474        C475   1.508       .  S
C475        H479   1.111       .  S
C475        H480   1.110       .  S
C475        H481   1.110       .  S
C478        H482   1.110   1_554  S
C478        H483   1.110       .  S
C478        H484   1.111       .  S
C485        C486   1.405   1_554  A
C485        C490   1.403       .  A
C485        H492   1.084       .  S
C486        C487   1.419       .  A
C487        C488   1.405       .  A
C487        C494   1.509       .  S
C488        C489   1.402   1_556  A
C488        H493   1.084       .  S
C489        C490   1.415       .  A
C490        C491   1.509       .  S
C491        H495   1.111       .  S
C491        H496   1.110       .  S
C491        H497   1.109   1_554  S
C494        H498   1.110   1_556  S
C494        H499   1.110       .  S
C494        H500   1.111       .  S
C501        C502   1.404   1_554  A
C501        C506   1.405   1_554  A
C501        H508   1.084       .  S
C502        C503   1.416       .  A
C503        C504   1.403       .  A
C503        C510   1.508   1_556  S
C504        C505   1.402       .  A
C504        H509   1.084   1_556  S
C505        C506   1.415       .  A
C506        C507   1.508   1_556  S
C507        H511   1.111       .  S
C507        H512   1.111       .  S
C507        H513   1.109   1_554  S
C510        H514   1.110       .  S
C510        H515   1.109   1_554  S
C510        H516   1.111       .  S
C517        C518   1.401   1_455  A
C517        C522   1.395       .  A
C517        H524   1.085       .  S
C518        C519   1.412       .  A
C519        C520   1.395       .  A
C519        C526   1.509       .  S
C520        C521   1.401   1_655  A
C520        H525   1.085       .  S
C521        C522   1.412       .  A
C522        C523   1.509       .  S
C523        H527   1.111       .  S
C523        H528   1.111       .  S
C523        H529   1.109       .  S
C526        H530   1.109       .  S
C526        H531   1.111       .  S
C526        H532   1.111       .  S
C533        C534   1.403   1_655  A
C533        C538   1.397       .  A
C533        H540   1.084       .  S
C534        C535   1.413       .  A
C535        C536   1.393       .  A
C535        C542   1.510       .  S
C536        C537   1.401   1_455  A
C536        H541   1.085       .  S
C537        C538   1.412       .  A
C538        C539   1.509       .  S
C539        H543   1.111       .  S
C539        H544   1.111   1_655  S
C539        H545   1.109       .  S
C542        H546   1.110       .  S
C542        H547   1.110   1_455  S
C542        H548   1.111       .  S
