geometry optimzed in LAMMPS
_audit_creation_date              2020-11-30 
_audit_creation_method            'lammps2cif' 
_symmetry_space_group_name_H-M    'P1' 
_symmetry_Int_Tables_number       1 
_symmetry_cell_setting            triclinic 
loop_ 
_symmetry_equiv_pos_as_xyz 
  x,y,z 
_cell_length_a                    36.86013448 
_cell_length_b                    36.506905732852246 
_cell_length_c                    37.392048210584186 
_cell_angle_alpha                 93.12368057761375 
_cell_angle_beta                  89.90070712986179 
_cell_angle_gamma                 90.22804952082777 
loop_ 
_atom_site_label 
_atom_site_type_symbol 
_atom_site_fract_x 
_atom_site_fract_y 
_atom_site_fract_z 
_atom_site_charge 
C1          C  0.42817953  0.56113726  0.42818631     0.42800
N2          N  0.46786868  0.54859735  0.46744760     0.01600
C3          C  0.57576867  0.39273755  0.46632690    -0.06200
H4          H  0.43874318  0.36607188  0.47608062     0.07100
C5          C  0.44014742  0.44528848  0.59874173    -0.06600
Co6        Co  0.50970594  0.48110555  0.44549178     0.74200
N7          N  0.46992556  0.41586862  0.47067797    -0.25800
Co8        Co  0.50808855  0.41926246  0.51222568     0.74100
C9          C  0.42468314  0.41002969  0.58655839     0.42900
N10         N  0.46584935  0.53283308  0.57406503     0.01300
N11         N  0.46767720  0.42343426  0.55108581     0.01400
N12         N  0.57608119  0.43578519  0.42505394    -0.46600
H13         H  0.44262391  0.50980287  0.39260605     0.07100
N14         N  0.47070449  0.44001987  0.44568421     0.01700
N15         N  0.54611550  0.42365336  0.55341801     0.01400
C16         C  0.58641329  0.40958364  0.59157104     0.43000
N17         N  0.46570730  0.55526205  0.54752449    -0.25200
C18         C  0.57501090  0.52789691  0.42279062    -0.06100
N19         N  0.44336471  0.57333530  0.45946963    -0.46300
N20         N  0.56938988  0.39775083  0.56122262    -0.46500
C21         C  0.58969628  0.56370073  0.43404578     0.42800
N22         N  0.54972357  0.44156057  0.44862941     0.01600
N23         N  0.54459113  0.55692175  0.54916037    -0.25200
N24         N  0.46993130  0.52120483  0.44302151    -0.25700
N25         N  0.54484480  0.53418634  0.57545558     0.01300
H26         H  0.57524021  0.60559461  0.53906360     0.07200
H27         H  0.57534906  0.46199899  0.62697949     0.07200
N28         N  0.54890398  0.41701059  0.47324210    -0.25800
N29         N  0.46687135  0.45113448  0.57535407    -0.25400
N30         N  0.54678155  0.55051237  0.46968343     0.01600
C31         C  0.42954832  0.40172022  0.42779543     0.43000
C32         C  0.43850142  0.57918359  0.55266511    -0.06600
N33         N  0.54582994  0.45151809  0.57755306    -0.25400
H34         H  0.43422516  0.46221525  0.62266586     0.07200
N35         N  0.44724559  0.43248467  0.41963827    -0.46600
H36         H  0.43266738  0.60179904  0.53608774     0.07200
C37         C  0.58628326  0.57361860  0.58919965     0.42900
C38         C  0.44587726  0.52673703  0.41704351    -0.06100
Co39       Co  0.50612960  0.55342916  0.50848229     0.73800
N40         N  0.44020803  0.54080062  0.59822549    -0.46300
C41         C  0.59389735  0.40571038  0.43449528     0.43100
N42         N  0.57067921  0.57643196  0.46294758    -0.46300
Co43       Co  0.50596254  0.49249342  0.57642512     0.73900
C44         C  0.57086600  0.44526532  0.60261158    -0.06600
C45         C  0.44454192  0.39034619  0.46171323    -0.06200
N46         N  0.54835872  0.52229781  0.44619405    -0.25700
N47         N  0.44339198  0.39783994  0.55732707    -0.46500
H48         H  0.58131340  0.36877694  0.48116959     0.07200
C49         C  0.57018515  0.58247087  0.55528918    -0.06600
Cl50       Cl  0.50746070  0.48658442  0.51070066    -0.49600
C51         C  0.42167908  0.56953145  0.58618843     0.42900
H52         H  0.58122042  0.51046886  0.39927397     0.07100
N53         N  0.56909109  0.54360951  0.60055332    -0.46300
C54         C  0.08605683  0.43405613  0.89353529     0.42800
N55         N  0.06997972  0.47029000  0.93779720     0.01600
C56         C  0.91374705  0.46658949  0.03989244    -0.06200
H57         H  0.88713676  0.48835809  0.91137484     0.07100
C58         C  0.96203080  0.60935961  0.92459318    -0.06600
Co59       Co  0.00197922  0.44549112  0.97245962     0.74200
N60         N  0.93766139  0.47776771  0.93772145    -0.25800
Co61       Co  0.93961691  0.51658528  0.98054914     0.74100
C62         C  0.92771873  0.59830644  0.90742111     0.42900
N63         N  0.05023418  0.57863998  0.94800893     0.01300
N64         N  0.94200241  0.55920034  0.94574911     0.01400
N65         N  0.95310397  0.41920349  0.03273445    -0.46600
H66         H  0.03488938  0.39836497  0.89874809     0.07100
N67         N  0.96157191  0.45102460  0.93381054     0.01700
N68         N  0.94237989  0.55551783  0.02352037     0.01400
C69         C  0.92742991  0.59172522  0.06817724     0.43000
N70         N  0.07414544  0.55175218  0.94628308    -0.25200
C71         C  0.05007888  0.41344377  0.03224740    -0.06100
N72         N  0.09659710  0.46325506  0.91468372    -0.46300
N73         N  0.91713020  0.56148339  0.04835110    -0.46500
C74         C  0.08411398  0.42410658  0.05001548     0.42800
N75         N  0.96125519  0.44596722  0.01144356     0.01600
N76         N  0.07295877  0.54846688  0.02354441    -0.25200
N77         N  0.04304186  0.44645612  0.93409595    -0.25700
N78         N  0.04983780  0.57607543  0.02584957     0.01300
H79         H  0.12129413  0.53640244  0.05287482     0.07200
H80         H  0.97726123  0.62879201  0.06037082     0.07200
N81         N  0.93828893  0.47363707  0.01479248    -0.25800
N82         N  0.96863814  0.58352096  0.94796654    -0.25400
N83         N  0.06861113  0.46602127  0.01510574     0.01600
C84         C  0.92176747  0.43864200  0.89286639     0.43000
C85         C  0.09936590  0.55884350  0.92170803    -0.06600
N86         N  0.96854953  0.58034347  0.02555781    -0.25400
H87         H  0.97826473  0.63370103  0.92137075     0.07200
N88         N  0.95274337  0.42666963  0.90759332    -0.46600
H89         H  0.12309019  0.54238293  0.91539882     0.07200
C90         C  0.08797333  0.58810485  0.06830772     0.42900
C91         C  0.05056774  0.42261721  0.90647116    -0.06100
Co92       Co  0.07186594  0.50911387  0.98084384     0.73800
N93         N  0.05794834  0.60454041  0.92572098    -0.46300
C94         C  0.92362896  0.43062581  0.05165853     0.43100
N95         N  0.09405081  0.45680005  0.03789499    -0.46300
Co96       Co  0.00941455  0.58035310  0.98685372     0.73900
C97         C  0.96147947  0.60449711  0.05307062    -0.06600
C98         C  0.91158215  0.47226467  0.91312681    -0.06200
N99         N  0.04262105  0.44109600  0.01115866    -0.25700
N100        N  0.91684962  0.56714639  0.92209236    -0.46500
H101        H  0.89049194  0.48341050  0.04709147     0.07200
C102        C  0.09780975  0.55350995  0.04943131    -0.06600
Cl103      Cl  0.00572970  0.51288103  0.98023786    -0.49600
C104        C  0.08843698  0.59373603  0.90812945     0.42900
H105        H  0.03471800  0.38823055  0.03339460     0.07100
N106        N  0.05811759  0.60074943  0.05206751    -0.46300
C107        C  0.72029112  0.21058380  0.78675100     0.86800
C108        C  0.69622125  0.22987070  0.76012725    -0.53500
C109        C  0.71467300  0.25331714  0.73944158     0.09700
C110        C  0.75573589  0.25474521  0.74653761     0.20700
C111        C  0.74978464  0.19147869  0.76327699    -0.54200
C112        C  0.76793259  0.21465323  0.74211666     0.09800
C113        C  0.74030082  0.24180726  0.80794894    -0.53700
C114        C  0.75932284  0.26459088  0.78683950     0.10400
H115        H  0.66699799  0.22615723  0.75854002     0.14900
H116        H  0.77078362  0.27345601  0.72927069     0.00600
H117        H  0.75510499  0.16226152  0.76198057     0.15200
H118        H  0.74042159  0.24481060  0.83700868     0.15000
C119        C  0.42593089  0.06884019  0.93673064     0.42800
N120        N  0.43797947  0.03006488  0.97601527     0.01600
C121        C  0.59383292  0.02848179  0.08061087    -0.06200
H122        H  0.61543792  0.01284206  0.94357651     0.07100
C123        C  0.54451135  0.89251957  0.94082107    -0.06600
Co124      Co  0.50429169  0.05149836  0.01834350     0.74200
N125        N  0.56855751  0.02309392  0.97728672    -0.25800
Co126      Co  0.56712023  0.98098291  0.01290569     0.74100
C127        C  0.57827879  0.90520934  0.92509633     0.42900
N128        N  0.45676454  0.92063589  0.96769702     0.01300
N129        N  0.56443218  0.94115942  0.97042110     0.01400
N130        N  0.55198552  0.07360596  0.08238517    -0.46600
H131        H  0.47601433  0.10404227  0.95231672     0.07100
N132        N  0.54482165  0.05010758  0.97965365     0.01700
N133        N  0.56409543  0.93878125  0.04851012     0.01400
C134        C  0.57747041  0.89956427  0.08709473     0.43000
N135        N  0.43347825  0.94809801  0.96946102    -0.25200
C136        C  0.45678607  0.07563695  0.08432541    -0.06100
N137        N  0.41404448  0.03785645  0.95115025    -0.46300
N138        N  0.58899725  0.93051240  0.07233091    -0.46500
C139        C  0.42172882  0.06457217  0.09843166     0.42800
N140        N  0.54428736  0.04782803  0.05725507     0.01600
N141        N  0.43160291  0.94590289  0.04676921    -0.25200
N142        N  0.46452399  0.05438354  0.97907682    -0.25700
N143        N  0.45566300  0.91912803  0.04576263     0.01300
H144        H  0.38178529  0.95499396  0.07629500     0.07200
H145        H  0.52666367  0.86480320  0.07299621     0.07200
N146        N  0.56857700  0.02129143  0.05519915    -0.25800
N147        N  0.53803744  0.91654201  0.96860088    -0.25400
N148        N  0.43616222  0.02785110  0.05395837     0.01600
C149        C  0.58047664  0.06428620  0.93739972     0.43000
C150        C  0.40927775  0.94297610  0.94298755    -0.06600
N151        N  0.53720931  0.91469534  0.04629509    -0.25400
H152        H  0.52820024  0.86864627  0.93331545     0.07200
N153        N  0.55120374  0.07559044  0.95654379    -0.46600
H154        H  0.38600358  0.96015695  0.93880209     0.07200
C155        C  0.41658609  0.90402126  0.08489420     0.42900
C156        C  0.45928783  0.07998467  0.95524924    -0.06100
Co157      Co  0.43421575  0.98805715  0.01151505     0.73800
N158        N  0.44924361  0.89597102  0.94125387    -0.46300
C159        C  0.58260888  0.06325170  0.09864811     0.43100
N160        N  0.41034580  0.03508936  0.07801542    -0.46300
Co161      Co  0.49687392  0.91706091  0.00711894     0.73900
C162        C  0.54318312  0.88897016  0.06986786    -0.06600
C163        C  0.59221222  0.02957920  0.95106581    -0.06200
N164        N  0.46327797  0.05156871  0.05671133    -0.25700
N165        N  0.58910421  0.93529564  0.94494252    -0.46500
H166        H  0.61841065  0.01297413  0.08401220     0.07200
C167        C  0.40580484  0.93873112  0.07073141    -0.06600
Cl168      Cl  0.50064409  0.98436528  0.01256388    -0.49600
C169        C  0.41974894  0.90850510  0.92432031     0.42900
H170        H  0.47319624  0.09946743  0.09174595     0.07100
N171        N  0.44758620  0.89334082  0.06813998    -0.46300
C172        C  0.21793403  0.78796558  0.70653110     0.86800
C173        C  0.19631052  0.76566682  0.73281515    -0.53500
C174        C  0.21700816  0.74398068  0.75329004     0.09700
C175        C  0.25815854  0.74665608  0.74542653     0.20700
C176        C  0.24564772  0.80936728  0.72961514    -0.54200
C177        C  0.26659903  0.78834172  0.75062125     0.09800
C178        C  0.23995925  0.75945971  0.68469932    -0.53700
C179        C  0.26125670  0.73750732  0.70445772     0.10400
H180        H  0.16700895  0.76600829  0.73440604     0.14900
H181        H  0.27503485  0.72932198  0.76221344     0.00600
H182        H  0.24776711  0.83902867  0.72966562     0.15200
H183        H  0.23810611  0.75700507  0.65575559     0.15000
C184        C  0.92029521  0.10240882  0.41051258     0.42800
N185        N  0.95784445  0.06061780  0.42372478     0.01600
C186        C  0.96167393  0.95582896  0.57197262    -0.06200
H187        H  0.97842489  0.09004135  0.60457814     0.07100
C188        C  0.09554291  0.08914461  0.53035533    -0.06600
Co189      Co  0.93606880  0.02235725  0.48896380     0.74200
N190        N  0.96727879  0.06140935  0.55391567    -0.25800
Co191      Co  0.00737169  0.02170203  0.54923825     0.74100
C192        C  0.08465941  0.10434295  0.56582797     0.42900
N193        N  0.06531416  0.06167869  0.44161739     0.01300
N194        N  0.04740812  0.06175067  0.54859552     0.01400
N195        N  0.91429050  0.95773310  0.53362952    -0.46600
H196        H  0.88508000  0.09277434  0.46020886     0.07100
N197        N  0.94008297  0.06245024  0.53107568     0.01700
N198        N  0.04757597  0.98193340  0.54385728     0.01400
C199        C  0.08579370  0.94027440  0.55576703     0.43000
N200        N  0.03826524  0.06076906  0.41844779    -0.25200
C201        C  0.90722107  0.95723378  0.44077861    -0.06100
N202        N  0.95044334  0.08443983  0.39938560    -0.46300
N203        N  0.05507112  0.95708418  0.56723663    -0.46500
C204        C  0.91648524  0.93973168  0.40605913     0.42800
N205        N  0.93936242  0.98248304  0.52670125     0.01600
N206        N  0.03912290  0.98119416  0.41468672    -0.25200
N207        N  0.93411053  0.06151647  0.45026658    -0.25700
N208        N  0.06596083  0.98205652  0.43812927     0.01300
H209        H  0.03061322  0.94978039  0.36460891     0.07200
H210        H  0.12130325  0.95268317  0.50706468     0.07200
N211        N  0.96701145  0.98214257  0.54904103    -0.25800
N212        N  0.07095704  0.06269241  0.52203935    -0.25400
N213        N  0.95673526  0.98064182  0.42049685     0.01600
C214        C  0.92717546  0.10309219  0.57277097     0.43000
C215        C  0.04392333  0.08660252  0.39492107    -0.06600
N216        N  0.07177589  0.98278315  0.51787658    -0.25400
H217        H  0.11956695  0.09486540  0.51494748     0.07200
N218        N  0.91503768  0.08671449  0.54170172    -0.46600
H219        H  0.02726413  0.09117146  0.37181492     0.07200
C220        C  0.08151070  0.94019702  0.39860156     0.42900
C221        C  0.90912468  0.08719408  0.44424466    -0.06100
Co222      Co  0.99790832  0.02058121  0.41872478     0.73800
N223        N  0.09031535  0.08643133  0.43453386    -0.46300
C224        C  0.92683364  0.93972708  0.56164594     0.43100
N225        N  0.94735977  0.95577737  0.39481564    -0.46300
Co226      Co  0.06909722  0.02242432  0.47979754     0.73900
C227        C  0.09716539  0.95736353  0.52312672    -0.06600
C228        C  0.96169135  0.08627784  0.58092360    -0.06200
N229        N  0.93333193  0.98220260  0.44734822    -0.25700
N230        N  0.05499250  0.08559775  0.57545128    -0.46500
H231        H  0.97887691  0.95054709  0.59449980     0.07200
C232        C  0.04654722  0.95545342  0.38854588    -0.06600
Cl233      Cl  0.00260440  0.02175400  0.48413509    -0.49600
C234        C  0.07836612  0.10348149  0.40570802     0.42900
H235        H  0.88351692  0.95353518  0.45729932     0.07100
N236        N  0.09177099  0.95812511  0.42942538    -0.46300
C237        C  0.72675456  0.71223488  0.28401215     0.86800
C238        C  0.70145109  0.73369572  0.26058574    -0.53500
C239        C  0.71881443  0.75627532  0.23805847     0.09700
C240        C  0.76078261  0.75505980  0.24112878     0.20700
C241        C  0.75236365  0.69188302  0.25759470    -0.54200
C242        C  0.77009842  0.71388579  0.23493071     0.09800
C243        C  0.75048687  0.74138435  0.30345730    -0.53700
C244        C  0.76829297  0.76401724  0.28133752     0.10400
H245        H  0.67213583  0.73154916  0.26241467     0.14900
H246        H  0.77521775  0.77322266  0.22290938     0.00600
H247        H  0.75683754  0.66259656  0.25683358     0.15200
H248        H  0.75273447  0.74401622  0.33244809     0.15000
C249        C  0.22834928  0.28850725  0.20561188     0.86800
C250        C  0.20169118  0.27175257  0.23154220    -0.53500
C251        C  0.21737548  0.25036505  0.25608570     0.09700
C252        C  0.25917265  0.24855183  0.25276579     0.20700
C253        C  0.25578472  0.30961680  0.22991933    -0.54200
C254        C  0.27199626  0.28887731  0.25477565     0.09800
C255        C  0.24956937  0.25582123  0.18900754    -0.53700
C256        C  0.26589830  0.23509723  0.21360610     0.10400
H257        H  0.17267595  0.27613242  0.22983378     0.14900
H258        H  0.27260449  0.23119411  0.27217704     0.00600
H259        H  0.26148258  0.33854862  0.22815604     0.15200
H260        H  0.25201182  0.24993864  0.16031191     0.15000
C261        C  0.78187287  0.28774505  0.20383960     0.86800
C262        C  0.76014927  0.31035720  0.23238043    -0.53500
C263        C  0.74271030  0.28989579  0.25679760     0.09700
C264        C  0.74875657  0.24824863  0.25016196     0.20700
C265        C  0.80742159  0.26448245  0.22552693    -0.54200
C266        C  0.79032018  0.24380855  0.24987480     0.09800
C267        C  0.75432177  0.26054573  0.18689266    -0.53700
C268        C  0.73705311  0.23982230  0.21104584     0.10400
H269        H  0.75908241  0.33991337  0.23363633     0.14900
H270        H  0.73454321  0.23097950  0.26926486     0.00600
H271        H  0.83669176  0.26517472  0.22234876     0.15200
H272        H  0.74907497  0.25773522  0.15829244     0.15000
C273        C  0.28145775  0.71312364  0.29017687     0.86800
C274        C  0.25591643  0.69193129  0.26431851    -0.53500
C275        C  0.23745020  0.71329074  0.24161473     0.09700
C276        C  0.24614694  0.75468851  0.24736719     0.20700
C277        C  0.30604641  0.73505909  0.26625515    -0.54200
C278        C  0.28802800  0.75694297  0.24365668     0.09800
C279        C  0.25737375  0.74194654  0.30970047    -0.53700
C280        C  0.23884713  0.76390483  0.28757688     0.10400
H281        H  0.25300958  0.66230969  0.26399110     0.14900
H282        H  0.23111964  0.77216680  0.22914531     0.00600
H283        H  0.33538821  0.73330027  0.26750830     0.15200
H284        H  0.25474770  0.74472042  0.33856496     0.15000
C285        C  0.28990942  0.21434272  0.78276822     0.86800
C286        C  0.26136955  0.19386145  0.75911334    -0.53500
C287        C  0.24279133  0.21603912  0.73729653     0.09700
C288        C  0.25371132  0.25665124  0.74158449     0.20700
C289        C  0.31373971  0.23424760  0.75617293    -0.54200
C290        C  0.29481936  0.25684320  0.73522872     0.09800
C291        C  0.26876603  0.24494658  0.80327878    -0.53700
C292        C  0.24945772  0.26678732  0.78173047     0.10400
H293        H  0.25693714  0.16445564  0.75840012     0.14900
H294        H  0.23840016  0.27471005  0.72404013     0.00600
H295        H  0.34308774  0.23184123  0.75494594     0.15200
H296        H  0.26844774  0.24844043  0.83231296     0.15000
C297        C  0.78880937  0.79232709  0.71201350     0.86800
C298        C  0.76559690  0.76476031  0.69026586    -0.53500
C299        C  0.74446022  0.74263529  0.71019695     0.09700
C300        C  0.74952017  0.75006705  0.75119252     0.20700
C301        C  0.76234572  0.81330244  0.73668943    -0.54200
C302        C  0.74159174  0.79175269  0.75758703     0.09800
C303        C  0.81103358  0.76891978  0.73639330    -0.53700
C304        C  0.79108236  0.74676976  0.75718434     0.10400
H305        H  0.76632215  0.76316980  0.66126813     0.14900
H306        H  0.73301928  0.73227278  0.76804995     0.00600
H307        H  0.76021249  0.84295432  0.73706675     0.15200
H308        H  0.84041827  0.76888861  0.73650301     0.15000
C309        C  0.18739976  0.19018355  0.66150501     0.20600
C310        C  0.17696964  0.18760439  0.62526373    -0.39200
C311        C  0.14844826  0.16300385  0.61662729     0.19600
C312        C  0.13114296  0.14337767  0.64238759     0.22300
C313        C  0.14151726  0.14597188  0.67847844    -0.39700
C314        C  0.17055661  0.16969715  0.68688666     0.21100
N315        N  0.21470318  0.21022793  0.67643397    -0.33000
C316        C  0.21552079  0.20175815  0.71129520    -0.10600
C317        C  0.18848887  0.17657076  0.71879993    -0.29400
N318        N  0.10560426  0.12121284  0.62748841    -0.46000
C319        C  0.10697053  0.12604883  0.59185387    -0.05300
C320        C  0.13334056  0.15194726  0.58391841    -0.22600
H321        H  0.19073603  0.20276365  0.60514658     0.19200
H322        H  0.12862995  0.12980806  0.69837452     0.18000
H323        H  0.18300569  0.16463475  0.74413021     0.14200
H324        H  0.14090735  0.16084492  0.55778575     0.14100
H325        H  0.23236839  0.22772038  0.66357227     0.32300
H326        H  0.08905147  0.10291146  0.64064717     0.35000
C327        C  0.11514333  0.16564841  0.34479527     0.20600
C328        C  0.11476168  0.18918458  0.31645394    -0.39200
C329        C  0.14861755  0.20296647  0.30653976     0.19600
C330        C  0.18051448  0.19392777  0.32329929     0.22300
C331        C  0.18087455  0.17056068  0.35192341    -0.39700
C332        C  0.14691103  0.15692485  0.36207740     0.21100
N333        N  0.08667075  0.14811205  0.35847290    -0.33000
C334        C  0.10033104  0.12826889  0.38483615    -0.10600
C335        C  0.13775763  0.13314468  0.38807170    -0.29400
N336        N  0.20915330  0.20985517  0.30793880    -0.46000
C337        C  0.19531884  0.22926193  0.28120402    -0.05300
C338        C  0.15755704  0.22557731  0.27973455    -0.22600
H339        H  0.08997767  0.19591593  0.30282017     0.19200
H340        H  0.20575260  0.16324186  0.36505773     0.18000
H341        H  0.15589207  0.12023285  0.40627633     0.14200
H342        H  0.13889997  0.23702589  0.26109264     0.14100
H343        H  0.05967462  0.14929373  0.35015716     0.32300
H344        H  0.23631452  0.20732542  0.31518003     0.35000
C345        C  0.82550889  0.85047723  0.64562214     0.20600
C346        C  0.82586584  0.86939138  0.61392498    -0.39200
C347        C  0.85908869  0.88570940  0.60545712     0.19600
C348        C  0.88932620  0.88360942  0.62717653     0.22300
C349        C  0.88887528  0.86494666  0.65885290    -0.39700
C350        C  0.85589676  0.84833568  0.66703059     0.21100
N351        N  0.79776150  0.83176439  0.65922344    -0.33000
C352        C  0.81083240  0.81701172  0.68914322    -0.10600
C353        C  0.84695505  0.82731291  0.69504035    -0.29400
N354        N  0.91736334  0.90185257  0.61378104    -0.46000
C355        C  0.90497697  0.91574464  0.58330645    -0.05300
C356        C  0.86879491  0.90618280  0.57701959    -0.22600
H357        H  0.80218711  0.87102420  0.59701684     0.19200
H358        H  0.91256809  0.86322546  0.67573591     0.18000
H359        H  0.86462173  0.82053563  0.71674077     0.14200
H360        H  0.85175114  0.91389142  0.55514024     0.14100
H361        H  0.77174947  0.82860687  0.64842012     0.32300
H362        H  0.94316196  0.90507212  0.62504491     0.35000
C363        C  0.17116611  0.83246679  0.30998082     0.20600
C364        C  0.13889802  0.85276911  0.30687978    -0.39200
C365        C  0.12955568  0.87594783  0.33693194     0.19600
C366        C  0.15108677  0.87877199  0.36726620     0.22300
C367        C  0.18318737  0.85890031  0.37019830    -0.39700
C368        C  0.19215612  0.83562787  0.34062682     0.21100
N369        N  0.18546596  0.80722401  0.28625717    -0.33000
C370        C  0.21542221  0.79413443  0.30239052    -0.10600
C371        C  0.22040458  0.81151750  0.33617437    -0.29400
N372        N  0.13653144  0.90184175  0.39237839    -0.46000
C373        C  0.10522706  0.91395093  0.37844468    -0.05300
C374        C  0.09980616  0.89850348  0.34374708    -0.22600
H375        H  0.12198926  0.85014451  0.28324036     0.19200
H376        H  0.19964260  0.86083088  0.39418388     0.18000
H377        H  0.24161835  0.80678764  0.35533687     0.14200
H378        H  0.07723522  0.90302229  0.32607306     0.14100
H379        H  0.17496288  0.79868321  0.26123810     0.32300
H380        H  0.14719475  0.90875605  0.41773100     0.35000
C381        C  0.80933764  0.83711447  0.33460637     0.20600
C382        C  0.81305565  0.86080985  0.36510407    -0.39200
C383        C  0.84573964  0.88032400  0.36796444     0.19600
C384        C  0.87276109  0.87692246  0.34228205     0.22300
C385        C  0.86873371  0.85353369  0.31122394    -0.39700
C386        C  0.83585869  0.83368886  0.30839435     0.21100
N387        N  0.78189506  0.81373157  0.32739449    -0.33000
C388        C  0.79058035  0.79500998  0.29630920    -0.10600
C389        C  0.82390980  0.80698028  0.28322706    -0.29400
N390        N  0.90172519  0.89779827  0.35222732    -0.46000
C391        C  0.89288383  0.91429027  0.38450139    -0.05300
C392        C  0.85816672  0.90405253  0.39501864    -0.22600
H393        H  0.79240758  0.86301277  0.38572502     0.19200
H394        H  0.88993279  0.85033007  0.29125369     0.18000
H395        H  0.83827750  0.79621714  0.25969916     0.14200
H396        H  0.84395005  0.91253410  0.41940966     0.14100
H397        H  0.75894037  0.81010282  0.34326754     0.32300
H398        H  0.92602956  0.90040233  0.33818750     0.35000
C399        C  0.82413647  0.19151427  0.32109581     0.20600
C400        C  0.82369257  0.17527050  0.35431774    -0.39200
C401        C  0.85586606  0.15769378  0.36369315     0.19600
C402        C  0.88600657  0.15635306  0.34151872     0.22300
C403        C  0.88650783  0.17269243  0.30845464    -0.39700
C404        C  0.85445019  0.19031459  0.29920177     0.21100
N405        N  0.79719233  0.21011213  0.30614105    -0.33000
C406        C  0.81055088  0.22098846  0.27457326    -0.10600
C407        C  0.84621361  0.20902763  0.26936015    -0.29400
N408        N  0.91275793  0.13718897  0.35588483    -0.46000
C409        C  0.89971562  0.12621110  0.38747656    -0.05300
C410        C  0.86433422  0.13858935  0.39344874    -0.22600
H411        H  0.80003351  0.17615265  0.37151877     0.19200
H412        H  0.91009362  0.17163759  0.29114362     0.18000
H413        H  0.86388327  0.21344041  0.24684738     0.14200
H414        H  0.84689099  0.13349087  0.41596296     0.14100
H415        H  0.77159234  0.21554193  0.31712142     0.32300
H416        H  0.93820138  0.13143042  0.34461200     0.35000
C417        C  0.18310194  0.84815336  0.64098593     0.20600
C418        C  0.18466079  0.86994405  0.61117009    -0.39200
C419        C  0.15158585  0.88520494  0.60094501     0.19600
C420        C  0.11962667  0.87959725  0.61941277     0.22300
C421        C  0.11808594  0.85773432  0.64907546    -0.39700
C422        C  0.15100705  0.84211186  0.65894995     0.21100
N423        N  0.21056417  0.83030162  0.65587229    -0.33000
C424        C  0.19587139  0.81228096  0.68326799    -0.10600
C425        C  0.15863182  0.81926908  0.68602139    -0.29400
N426        N  0.09219477  0.89804181  0.60525553    -0.46000
C427        C  0.10663765  0.91532998  0.57739106    -0.05300
C428        C  0.14359600  0.90785223  0.57365481    -0.22600
H429        H  0.20972482  0.87460938  0.59696753     0.19200
H430        H  0.09307355  0.85322176  0.66342184     0.18000
H431        H  0.13938248  0.80939055  0.70511325     0.14200
H432        H  0.16225502  0.91840116  0.55430718     0.14100
H433        H  0.23766389  0.82996507  0.64765195     0.32300
H434        H  0.06534097  0.89912514  0.61420971     0.35000
C435        C  0.62426154  0.13985159  0.14621606     0.20600
C436        C  0.62955886  0.17718173  0.15580757    -0.39200
C437        C  0.66167725  0.18600859  0.17440205     0.19600
C438        C  0.68637092  0.15957258  0.18344267     0.22300
C439        C  0.68090884  0.12209853  0.17406341    -0.39700
C440        C  0.64902523  0.11331422  0.15478165     0.21100
N441        N  0.59710389  0.12495134  0.12639312    -0.33000
C442        C  0.60465906  0.08869804  0.12174520    -0.10600
C443        C  0.63682371  0.08027615  0.13917594    -0.29400
N444        N  0.71570209  0.17533668  0.19931540    -0.46000
C445        C  0.70974378  0.21197141  0.19983400    -0.05300
C446        C  0.67637680  0.21972923  0.18462262    -0.22600
H447        H  0.61072261  0.19800002  0.14809234     0.19200
H448        H  0.70069232  0.10150514  0.18009922     0.18000
H449        H  0.65006113  0.05388408  0.13940103     0.14200
H450        H  0.66514296  0.24647911  0.18032022     0.14100
H451        H  0.57534489  0.13887204  0.11559185     0.32300
H452        H  0.73901395  0.16218859  0.20782742     0.35000
C453        C  0.34974868  0.11109042  0.14576643     0.20600
C454        C  0.31358563  0.12109217  0.15269205    -0.39200
C455        C  0.30861171  0.15315048  0.17453725     0.19600
C456        C  0.33746668  0.17326048  0.18910162     0.22300
C457        C  0.37364757  0.16299516  0.18252920    -0.42100
C458        C  0.37862692  0.13138071  0.15999498     0.21100
N459        N  0.36158756  0.08369081  0.12331915    -0.33000
C460        C  0.39821877  0.08687742  0.12279080    -0.10600
C461        C  0.40990302  0.11617560  0.14546085    -0.29400
N462        N  0.32563333  0.20403189  0.20670810    -0.46000
C463        C  0.28912296  0.20374302  0.20275700    -0.05300
C464        C  0.27743096  0.17247126  0.18299224    -0.22600
H465        H  0.29101936  0.10606405  0.14048588     0.19200
H466        H  0.39624607  0.17942374  0.19274258     0.18000
H467        H  0.43741423  0.12597948  0.14954149     0.14200
H468        H  0.25004265  0.16580776  0.17443318     0.14100
H469        H  0.34566027  0.06499911  0.10806512     0.32300
H470        H  0.34146125  0.22490323  0.21899474     0.35000
C471        C  0.32004071  0.82093961  0.18058098     0.20600
C472        C  0.31837514  0.85033613  0.15785985    -0.39200
C473        C  0.35099301  0.85899692  0.14060410     0.19600
C474        C  0.38265992  0.83956030  0.14530438     0.22300
C475        C  0.38431125  0.81028913  0.16796757    -0.39700
C476        C  0.35188289  0.80194777  0.18544907     0.21100
N477        N  0.29302306  0.80740481  0.20037086    -0.33000
C478        C  0.30788298  0.77966961  0.21810961    -0.10600
C479        C  0.34461176  0.77560389  0.20933046    -0.29400
N480        N  0.40989634  0.85298716  0.12593299    -0.46000
C481        C  0.39564788  0.88145915  0.10903655    -0.05300
C482        C  0.35897730  0.88611993  0.11748453    -0.22600
H483        H  0.29363170  0.86551079  0.15411086     0.19200
H484        H  0.40910573  0.79524261  0.17189192     0.18000
H485        H  0.36365069  0.75586091  0.21878871     0.14200
H486        H  0.34063868  0.90647065  0.10789734     0.14100
H487        H  0.26631474  0.81675777  0.20186735     0.32300
H488        H  0.43661881  0.84357689  0.12450513     0.35000
C489        C  0.64392966  0.87784323  0.85860412     0.20600
C490        C  0.67494361  0.88195349  0.83756189    -0.39200
C491        C  0.68645178  0.85044637  0.81781791     0.19600
C492        C  0.66862314  0.81711140  0.81863212     0.22300
C493        C  0.63699655  0.81308819  0.83939329    -0.39700
C494        C  0.62535304  0.84484979  0.85935186     0.21100
N495        N  0.62899045  0.90335702  0.88121160    -0.33000
C496        C  0.60048894  0.88682444  0.89662174    -0.10600
C497        C  0.59703874  0.85034320  0.88346047    -0.29400
N498        N  0.68595468  0.79131816  0.79770906    -0.46000
C499        C  0.71486356  0.80867267  0.78346080    -0.05300
C500        C  0.71585126  0.84553320  0.79565094    -0.22600
H501        H  0.68953497  0.90771883  0.83713536     0.19200
H502        H  0.62288956  0.78711110  0.84042079     0.18000
H503        H  0.57742808  0.83022881  0.89149455     0.14200
H504        H  0.73568214  0.86621733  0.78956795     0.14100
H505        H  0.63807735  0.93026593  0.88638237     0.32300
H506        H  0.67840091  0.76385591  0.79318425     0.35000
C507        C  0.32865448  0.14599899  0.83818024     0.20600
C508        C  0.33124012  0.11228638  0.85436038    -0.39200
C509        C  0.36201234  0.10787611  0.87572698     0.19600
C510        C  0.38821054  0.13496967  0.88052078     0.22300
C511        C  0.38543467  0.16880268  0.86463972    -0.39700
C512        C  0.35456937  0.17325199  0.84344578     0.21100
N513        N  0.30237725  0.15667289  0.81619383    -0.33000
C514        C  0.31156294  0.19109162  0.80732231    -0.10600
C515        C  0.34373354  0.20247378  0.82434723    -0.29400
N516        N  0.41464675  0.12420451  0.90224807    -0.46000
C517        C  0.40510835  0.09011047  0.91156274    -0.05300
C518        C  0.37248362  0.07892204  0.89550170    -0.22600
H519        H  0.31084101  0.09103430  0.85052927     0.19200
H520        H  0.40575410  0.19012125  0.86857731     0.18000
H521        H  0.35760499  0.22848908  0.82248695     0.14200
H522        H  0.35814693  0.05330820  0.89833524     0.14100
H523        H  0.27966664  0.14126769  0.80805814     0.32300
H524        H  0.43744522  0.13938764  0.91066623     0.35000
C525        C  0.64351432  0.85966207  0.14347155     0.20600
C526        C  0.67724257  0.85575942  0.16047027    -0.39200
C527        C  0.68110667  0.82434226  0.18029435     0.19600
C528        C  0.65329462  0.79911575  0.18313813     0.22300
C529        C  0.61965257  0.80301903  0.16627251    -0.39700
C530        C  0.61591997  0.83416110  0.14628398     0.21100
N531        N  0.63321215  0.88656161  0.12245318    -0.33000
C532        C  0.59889911  0.87797717  0.11174139    -0.10600
C533        C  0.58720269  0.84550291  0.12612439    -0.29400
N534        N  0.66340145  0.77186419  0.20355914    -0.46000
C535        C  0.69803741  0.77945467  0.21392170    -0.05300
C536        C  0.71012407  0.81198850  0.19975893    -0.22600
H537        H  0.69895483  0.87553648  0.15816914     0.19200
H538        H  0.59802527  0.78310224  0.16838435     0.18000
H539        H  0.56133136  0.83179660  0.12205895     0.14200
H540        H  0.73626784  0.82516622  0.20368063     0.14100
H541        H  0.64869871  0.90909748  0.11545064     0.32300
H542        H  0.64745031  0.74940777  0.20991806     0.35000
C543        C  0.33570000  0.81581064  0.81541509     0.20600
C544        C  0.36668433  0.81307383  0.83729447    -0.39200
C545        C  0.37617435  0.84506852  0.85824822     0.19600
C546        C  0.35613818  0.87699357  0.85735357     0.22300
C547        C  0.32558763  0.87973745  0.83555957    -0.39700
C548        C  0.31631337  0.84810392  0.81476557     0.21100
N549        N  0.32059634  0.78972442  0.79295486    -0.33000
C550        C  0.29164042  0.80593666  0.77784316    -0.10600
C551        C  0.28827450  0.84226781  0.79113260    -0.29400
N552        N  0.36960178  0.90322780  0.88012864    -0.46000
C553        C  0.39860598  0.88834180  0.89597932    -0.05300
C554        C  0.40381186  0.85203482  0.88292160    -0.22600
H555        H  0.38208117  0.78795691  0.83811180     0.19200
H556        H  0.30996524  0.90474644  0.83498930     0.18000
H557        H  0.26778180  0.86199664  0.78473163     0.14200
H558        H  0.42440016  0.83312564  0.89098711     0.14100
H559        H  0.32960961  0.76284413  0.78797584     0.32300
H560        H  0.35927704  0.92965213  0.88488350     0.35000
C561        C  0.84212251  0.17801246  0.69066062     0.20600
C562        C  0.87648385  0.16258541  0.68440159    -0.39200
C563        C  0.88382202  0.15076141  0.64881549     0.19600
C564        C  0.85876977  0.15376305  0.62158252     0.22300
C565        C  0.82464930  0.16981174  0.62773408    -0.39700
C566        C  0.81740049  0.18191147  0.66326389     0.21100
N567        N  0.82786976  0.18966395  0.72234765    -0.33000
C568        C  0.79407043  0.20135301  0.71486173    -0.10600
C569        C  0.78652785  0.19718398  0.67841873    -0.29400
N570        N  0.87135636  0.13806322  0.59066276    -0.46000
C571        C  0.90467872  0.12509233  0.59830236    -0.05300
C572        C  0.91352913  0.13280062  0.63420233    -0.22600
H573        H  0.89572269  0.15917628  0.70579418     0.19200
H574        H  0.80486057  0.17189101  0.60659733     0.18000
H575        H  0.76140884  0.20335787  0.66509826     0.14200
H576        H  0.93771840  0.12485961  0.64814873     0.14100
H577        H  0.84009187  0.18930481  0.74751923     0.32300
H578        H  0.85778884  0.13549833  0.56615151     0.35000
C579        C  0.63975489  0.10289380  0.87398597     0.20600
C580        C  0.66955537  0.10399106  0.85072665    -0.39200
C581        C  0.67704057  0.13821679  0.83709024     0.19600
C582        C  0.65646632  0.16898430  0.84593734     0.22300
C583        C  0.62629596  0.16780613  0.86882265    -0.39700
C584        C  0.61874065  0.13352621  0.88243815     0.21100
N585        N  0.62825826  0.07413057  0.89187395    -0.33000
C586        C  0.59971419  0.08650885  0.91183578    -0.10600
C587        C  0.59266449  0.12331361  0.90644967    -0.29400
N588        N  0.66959201  0.19823166  0.82979709    -0.46000
C589        C  0.69857345  0.18605421  0.81019249    -0.05300
C590        C  0.70406804  0.14860540  0.81427777    -0.22600
H591        H  0.68605615  0.08008935  0.84418694     0.19200
H592        H  0.61022482  0.19188291  0.87588823     0.18000
H593        H  0.57216207  0.14057154  0.91939869     0.14200
H594        H  0.72483947  0.13099060  0.80243941     0.14100
H595        H  0.63959399  0.04793355  0.89109255     0.32300
H596        H  0.65925968  0.22487139  0.83163594     0.35000
C597        C  0.15029228  0.38767739  0.10808734     0.20600
C598        C  0.17969598  0.38879266  0.13194781    -0.39200
C599        C  0.18840620  0.35543828  0.14673284     0.19600
C600        C  0.16962769  0.32334327  0.13801207     0.22300
C601        C  0.14040904  0.32211988  0.11387612    -0.39700
C602        C  0.13128062  0.35562357  0.09952340     0.21100
N603        N  0.13599636  0.41590647  0.09138001    -0.33000
C604        C  0.10740719  0.40190818  0.07234076    -0.10600
C605        C  0.10358176  0.36435028  0.07668796    -0.29400
N606        N  0.18226005  0.29579427  0.15682310    -0.46000
C607        C  0.20902320  0.31037935  0.17812341    -0.05300
C608        C  0.21378958  0.34764310  0.17223193    -0.22600
H609        H  0.19415698  0.41397789  0.13914804     0.19200
H610        H  0.12528664  0.29714627  0.10750245     0.18000
H611        H  0.08328629  0.34597241  0.06482786     0.14200
H612        H  0.23236993  0.36701275  0.18529704     0.14100
H613        H  0.14487642  0.44315690  0.09312850     0.32300
H614        H  0.17255722  0.26884026  0.15606587     0.35000
C615        C  0.19147391  0.65528484  0.17576952     0.20600
C616        C  0.18540913  0.62267580  0.15519621    -0.39200
C617        C  0.15456685  0.62193578  0.13348862     0.19600
C618        C  0.13124198  0.65141870  0.13214215     0.22300
C619        C  0.13748033  0.68444368  0.15274554    -0.39700
C620        C  0.16869517  0.68523681  0.17462710     0.21100
N621        N  0.21853408  0.66199422  0.19905835    -0.33000
C622        C  0.21348616  0.69652763  0.21325807    -0.10600
C623        C  0.18274931  0.71223615  0.19840838    -0.29400
N624        N  0.10387366  0.64330126  0.10901747    -0.46000
C625        C  0.11018118  0.60847373  0.09572016    -0.05300
C626        C  0.14150519  0.59441493  0.11046699    -0.22600
H627        H  0.20338489  0.59937549  0.15620954     0.19200
H628        H  0.11940907  0.70766725  0.15187381     0.18000
H629        H  0.17165151  0.73918886  0.20488234     0.14200
H630        H  0.15338344  0.56764346  0.10490856     0.14100
H631        H  0.23924378  0.64374432  0.20502930     0.32300
H632        H  0.08252268  0.66041161  0.10243464     0.35000
C633        C  0.81829313  0.65638336  0.17067880     0.20600
C634        C  0.82550932  0.62369499  0.15062304    -0.39200
C635        C  0.85760234  0.62324076  0.13062419     0.19600
C636        C  0.88093075  0.65304113  0.13059041     0.22300
C637        C  0.87356102  0.68598855  0.15064925    -0.39700
C638        C  0.84115591  0.68653712  0.17065603     0.21100
N639        N  0.79006766  0.66297251  0.19260913    -0.33000
C640        C  0.79462359  0.69760614  0.20696633    -0.10600
C641        C  0.82606549  0.71348976  0.19361211    -0.29400
N642        N  0.90947223  0.64550579  0.10890306    -0.46000
C643        C  0.90393596  0.61078791  0.09502661    -0.05300
C644        C  0.87194667  0.59604207  0.10803261    -0.22600
H645        H  0.80746468  0.60022962  0.15071453     0.19200
H646        H  0.89168210  0.70938628  0.15068809     0.18000
H647        H  0.83708798  0.74040347  0.20078964     0.14200
H648        H  0.86045111  0.56920177  0.10138322     0.14100
H649        H  0.76915752  0.64457951  0.19778070     0.32300
H650        H  0.93096430  0.66306709  0.10339827     0.35000
C651        C  0.15202957  0.63739511  0.85181216     0.20600
C652        C  0.18466769  0.64256637  0.83303221    -0.39200
C653        C  0.18688900  0.67489052  0.81424994     0.19600
C654        C  0.15866149  0.69976601  0.81437656     0.22300
C655        C  0.12638052  0.69477367  0.83325939    -0.39700
C656        C  0.12417290  0.66271033  0.85186126     0.21100
N657        N  0.14281097  0.60907806  0.87160108    -0.33000
C658        C  0.10896562  0.61676353  0.88421584    -0.10600
C659        C  0.09649493  0.64991730  0.87247464    -0.29400
N660        N  0.16643670  0.72747948  0.79367483    -0.46000
C661        C  0.19988463  0.72055317  0.77982234    -0.05300
C662        C  0.21382074  0.68806094  0.79235526    -0.22600
H663        H  0.20647988  0.62279571  0.83279093     0.19200
H664        H  0.10436535  0.71430287  0.83311723     0.18000
H665        H  0.07068735  0.66296531  0.87837261     0.14200
H666        H  0.23943391  0.67515504  0.78535914     0.14100
H667        H  0.15861225  0.58617916  0.87642803     0.32300
H668        H  0.14947092  0.74955588  0.78904320     0.35000
C669        C  0.88799731  0.66419133  0.85201600     0.20600
C670        C  0.88569104  0.69759992  0.83559311    -0.39200
C671        C  0.85383762  0.70321435  0.81638913     0.19600
C672        C  0.82608150  0.67764100  0.81329372     0.22300
C673        C  0.82846135  0.64382946  0.82972350    -0.39700
C674        C  0.86053813  0.63819988  0.84930525     0.21100
N675        N  0.91534226  0.65299648  0.87239523    -0.33000
C676        C  0.90549822  0.61956381  0.88309780    -0.10600
C677        C  0.87148219  0.60925245  0.86915691    -0.29400
N678        N  0.79899848  0.68992199  0.79270458    -0.46000
C679        C  0.81005101  0.72343313  0.78266708    -0.05300
C680        C  0.84396199  0.73246737  0.79729441    -0.22600
H681        H  0.90717271  0.71790484  0.83771387     0.19200
H682        H  0.80699179  0.62352802  0.82755308     0.18000
H683        H  0.85657823  0.58426702  0.87345108     0.14200
H684        H  0.85974285  0.75713305  0.79405671     0.14100
H685        H  0.93907889  0.66752448  0.87900238     0.32300
H686        H  0.77511039  0.67607358  0.78521154     0.35000
C687        C  0.17880927  0.33054702  0.80511725     0.20600
C688        C  0.14370612  0.34547727  0.80460411    -0.39200
C689        C  0.13561621  0.37148039  0.83256519     0.19600
C690        C  0.16098873  0.38242285  0.85829908     0.22300
C691        C  0.19596904  0.36762401  0.85873855    -0.39700
C692        C  0.20368310  0.34101771  0.83147240     0.21100
N693        N  0.19251208  0.30370194  0.78307086    -0.33000
C694        C  0.22594661  0.29666522  0.79607536    -0.10600
C695        C  0.23390433  0.31945739  0.82612159    -0.29400
N696        N  0.14666228  0.40681091  0.88237984    -0.46000
C697        C  0.11171433  0.41105129  0.87243083    -0.05300
C698        C  0.10362640  0.38940947  0.84153772    -0.22600
H699        H  0.12380592  0.33657247  0.78469614     0.19200
H700        H  0.21536768  0.37538517  0.87951981     0.18000
H701        H  0.25817027  0.31954585  0.84238426     0.14200
H702        H  0.07780871  0.38679670  0.82787888     0.14100
H703        H  0.17943596  0.28999262  0.76144828     0.32300
H704        H  0.15955441  0.41901719  0.90488896     0.35000
C705        C  0.87849660  0.36158155  0.09955102     0.20600
C706        C  0.86973869  0.32613183  0.10986525    -0.39200
C707        C  0.84165643  0.32414956  0.13520600     0.19600
C708        C  0.82395166  0.35507210  0.14914285     0.22300
C709        C  0.83223976  0.39026801  0.13841348    -0.39700
C710        C  0.86011428  0.39226347  0.11319368     0.21100
N711        N  0.90425590  0.37120637  0.07623985    -0.33000
C712        C  0.90180718  0.40818965  0.07504838    -0.10600
C713        C  0.87463892  0.42222293  0.09768192    -0.29400
N714        N  0.79989446  0.34645082  0.17428696    -0.46000
C715        C  0.80216215  0.30956689  0.17676592    -0.05300
C716        C  0.82755299  0.29466317  0.15223373    -0.22600
H717        H  0.88403807  0.30202257  0.09938257     0.19200
H718        H  0.81839864  0.41444948  0.14939651     0.18000
H719        H  0.86651973  0.45056995  0.10211091     0.14200
H720        H  0.83571478  0.26625550  0.14860853     0.14100
H721        H  0.92197280  0.35376158  0.06170757     0.32300
H722        H  0.78375131  0.36516087  0.18896488     0.35000
C723        C  0.84717636  0.38467813  0.85927639     0.20600
C724        C  0.81204814  0.36978237  0.86001090    -0.39200
C725        C  0.80505466  0.34070073  0.83491424     0.19600
C726        C  0.83078297  0.32810524  0.81023698     0.22300
C727        C  0.86603981  0.34295744  0.80956433    -0.39700
C728        C  0.87336319  0.37144288  0.83538072     0.21100
N729        N  0.86094054  0.41117906  0.88161654    -0.33000
C730        C  0.89634162  0.41443327  0.87249224    -0.10600
C731        C  0.90523516  0.39010254  0.84376675    -0.29400
N732        N  0.81738959  0.30003807  0.78943914    -0.46000
C733        C  0.78320170  0.29431910  0.80144808    -0.05300
C734        C  0.77454960  0.31905057  0.82986361    -0.22600
H735        H  0.79194357  0.37946688  0.87938998     0.19200
H736        H  0.88651409  0.33244042  0.79097638     0.18000
H737        H  0.93154199  0.38608297  0.83129728     0.14200
H738        H  0.74941897  0.32079204  0.84485988     0.14100
H739        H  0.84741400  0.42525602  0.90270537     0.32300
H740        H  0.83093765  0.28502782  0.76895444     0.35000
C741        C  0.65050742  0.64044114  0.62104170     0.20600
C742        C  0.67398176  0.67015838  0.61799507    -0.39200
C743        C  0.68912217  0.68437188  0.64999431     0.19600
C744        C  0.68170294  0.67039640  0.68284256     0.22300
C745        C  0.65802600  0.64030572  0.68594289    -0.39700
C746        C  0.64279048  0.62577069  0.65359854     0.21100
N747        N  0.63201033  0.62307181  0.59441923    -0.33000
C748        C  0.61223096  0.59690277  0.60975353    -0.10600
C749        C  0.61830357  0.59739614  0.64668220    -0.29400
N750        N  0.70010104  0.68933224  0.70907250    -0.46000
C751        C  0.71934819  0.71533762  0.69242643    -0.05300
C752        C  0.71276646  0.71292570  0.65558785    -0.22600
H753        H  0.67986595  0.68158513  0.59249262     0.19200
H754        H  0.65187307  0.62914870  0.71149343     0.18000
H755        H  0.60564647  0.58024486  0.66588885     0.14200
H756        H  0.72352975  0.72968229  0.63507651     0.14100
H757        H  0.63243551  0.62910440  0.56741892     0.32300
H758        H  0.69975628  0.68460401  0.73635418     0.35000
C759        C  0.36443013  0.36771806  0.64639666     0.20600
C760        C  0.33728914  0.36548554  0.67253983    -0.39200
C761        C  0.33035596  0.33020137  0.68405563     0.19600
C762        C  0.34964630  0.29975156  0.67115010     0.22300
C763        C  0.37632801  0.30190684  0.64471041    -0.39700
C764        C  0.38262463  0.33693443  0.63262126     0.21100
N765        N  0.37689846  0.39804724  0.63160114    -0.33000
C766        C  0.40265574  0.38610731  0.60792636    -0.10600
C767        C  0.40686356  0.34826339  0.60762059    -0.29400
N768        N  0.33932559  0.26971906  0.68762722    -0.46000
C769        C  0.31285172  0.28102695  0.71068635    -0.05300
C770        C  0.30623025  0.31844488  0.70917555    -0.22600
H771        H  0.32284498  0.38940661  0.68326116     0.19200
H772        H  0.39126287  0.27809854  0.63447826     0.18000
H773        H  0.42592988  0.33149770  0.59202069     0.14200
H774        H  0.28719221  0.33489886  0.72512466     0.14100
H775        H  0.36856786  0.42506829  0.63725823     0.32300
H776        H  0.34961714  0.24320380  0.68352451     0.35000
C777        C  0.69539615  0.34830263  0.32171165     0.20600
C778        C  0.68294678  0.38166817  0.33729948    -0.39200
C779        C  0.66032108  0.37908609  0.36712832     0.19600
C780        C  0.65089974  0.34583603  0.38075692     0.22300
C781        C  0.66360683  0.31231783  0.36517613    -0.39700
C782        C  0.68616105  0.31490936  0.33499959     0.21100
N783        N  0.71647224  0.34364509  0.29260853    -0.33000
C784        C  0.72094422  0.30688528  0.28688992    -0.10600
C785        C  0.70233242  0.28803909  0.31294780    -0.29400
N786        N  0.62725651  0.35094943  0.40810121    -0.46000
C787        C  0.62144310  0.38765494  0.41131427    -0.05300
C788        C  0.64174035  0.40602695  0.38642937    -0.22600
H789        H  0.68968954  0.40773242  0.32643570     0.19200
H790        H  0.65585249  0.28617929  0.37526235     0.18000
H791        H  0.70056267  0.25872565  0.31549675     0.14200
H792        H  0.64156779  0.43508601  0.38198675     0.14100
H793        H  0.72683727  0.36469040  0.27771004     0.32300
H794        H  0.61462619  0.33072254  0.42248013     0.35000
C795        C  0.36629182  0.62467118  0.39245315     0.20600
C796        C  0.34208498  0.65427704  0.39311918    -0.39200
C797        C  0.32868594  0.66358306  0.35972091     0.19600
C798        C  0.33890465  0.64508671  0.32807655     0.22300
C799        C  0.36279912  0.61518439  0.32740498    -0.39700
C800        C  0.37589878  0.60560159  0.36085058     0.21100
N801        N  0.38352925  0.61112846  0.42046593    -0.33000
C802        C  0.40393908  0.58299140  0.40665536    -0.10600
C803        C  0.39979700  0.57854939  0.36958710    -0.29400
N804        N  0.32338396  0.66015741  0.29993539    -0.46000
C805        C  0.30282396  0.68836252  0.31360102    -0.05300
C806        C  0.30547197  0.69120110  0.35100080    -0.22600
H807        H  0.33453908  0.66922112  0.41779028     0.19200
H808        H  0.37084345  0.60067262  0.30265967     0.18000
H809        H  0.41315926  0.55881965  0.35141479     0.14200
H810        H  0.29303753  0.71110372  0.36958674     0.14100
H811        H  0.38166672  0.62050499  0.44730053     0.32300
H812        H  0.32668919  0.65192490  0.27293225     0.35000
C813        C  0.63622355  0.63345426  0.38927168     0.20600
C814        C  0.64466409  0.66927332  0.38018635    -0.39200
C815        C  0.66936265  0.67204605  0.35191496     0.19600
C816        C  0.68449164  0.64152591  0.33423243     0.22300
C817        C  0.67585812  0.60574525  0.34311035    -0.39700
C818        C  0.65108691  0.60294444  0.37121216     0.21100
N819        N  0.61315130  0.62334658  0.41476186    -0.33000
C820        C  0.61319015  0.58620329  0.41254923    -0.10600
C821        C  0.63641971  0.57243213  0.38572995    -0.29400
N822        N  0.70701946  0.65136625  0.30826026    -0.46000
C823        C  0.70625534  0.68859785  0.30919469    -0.05300
C824        C  0.68293681  0.70239382  0.33611588    -0.22600
H825        H  0.63274508  0.69315647  0.39395119     0.19200
H826        H  0.68737057  0.58185378  0.32898235     0.18000
H827        H  0.64149551  0.54398175  0.37767078     0.14200
H828        H  0.67666483  0.73085993  0.34294949     0.14100
H829        H  0.59773433  0.64056349  0.43200135     0.32300
H830        H  0.72135154  0.63327099  0.29101700     0.35000
C831        C  0.62846287  0.33684251  0.63634355     0.20600
C832        C  0.63368780  0.30055416  0.64593097    -0.39200
C833        C  0.65939796  0.29580621  0.67292111     0.19600
C834        C  0.67898869  0.32489506  0.68852968     0.22300
C835        C  0.67348874  0.36119808  0.67918794    -0.39700
C836        C  0.64720924  0.36606271  0.65276421     0.21100
N837        N  0.60513970  0.34868545  0.61196242    -0.33000
C838        C  0.60856414  0.38573822  0.61328950    -0.10600
C839        C  0.63444492  0.39766199  0.63851045    -0.29400
N840        N  0.70185113  0.31320843  0.71340380    -0.46000
C841        C  0.69630191  0.27657055  0.71410958    -0.05300
C842        C  0.66994150  0.26463963  0.68935951    -0.22600
H843        H  0.61846711  0.27778670  0.63366160     0.19200
H844        H  0.68821959  0.38403675  0.69193824     0.18000
H845        H  0.64271084  0.42561615  0.64548814     0.14200
H846        H  0.65980493  0.23698154  0.68427469     0.14100
H847        H  0.58737754  0.33262872  0.59592912     0.32300
H848        H  0.71947658  0.32923773  0.72959335     0.35000
C849        C  0.32060752  0.66219074  0.67761533     0.20600
C850        C  0.34563159  0.63349569  0.68129715    -0.39200
C851        C  0.36058466  0.61813614  0.64910717     0.19600
C852        C  0.35116753  0.63054626  0.61604788     0.22300
C853        C  0.32565472  0.65831338  0.61237760    -0.39700
C854        C  0.31099837  0.67357789  0.64430148     0.21100
N855        N  0.30403420  0.68304713  0.70374559    -0.33000
C856        C  0.28385336  0.70788241  0.68668649    -0.10600
C857        C  0.28760929  0.70237572  0.64955911    -0.29400
N858        N  0.37100032  0.61403800  0.58978803    -0.46000
C859        C  0.39330717  0.59066118  0.60588862    -0.05300
C860        C  0.38740383  0.59202816  0.64291313    -0.22600
H861        H  0.35378711  0.62467341  0.70724229     0.19200
H862        H  0.31872474  0.66831841  0.58654093     0.18000
H863        H  0.27585299  0.71786381  0.62868534     0.14200
H864        H  0.40205499  0.57740760  0.66270611     0.14100
H865        H  0.30675127  0.68076352  0.73132192     0.32300
H866        H  0.37004377  0.61908733  0.56256757     0.35000
C867        C  0.37461295  0.37070216  0.35382451     0.20600
C868        C  0.35844766  0.37323145  0.32023667    -0.39200
C869        C  0.33690120  0.34336116  0.30855220     0.19600
C870        C  0.33185837  0.31298920  0.32855178     0.22300
C871        C  0.34849410  0.31023491  0.36223320    -0.39700
C872        C  0.37001322  0.34045967  0.37417742     0.21100
N873        N  0.39584318  0.39590584  0.37074962    -0.33000
C874        C  0.40509293  0.38197235  0.40225966    -0.10600
C875        C  0.38951278  0.34732206  0.40554555    -0.29400
N876        N  0.30876204  0.28906441  0.31173637    -0.46000
C877        C  0.29894173  0.30461565  0.28098145    -0.05300
C878        C  0.31632870  0.33837269  0.27812810    -0.22600
H879        H  0.36192146  0.39707662  0.30456644     0.19200
H880        H  0.34448453  0.28667955  0.37817424     0.18000
H881        H  0.39225985  0.32957315  0.42762725     0.14200
H882        H  0.31391162  0.35728014  0.25697990     0.14100
H883        H  0.40374510  0.42114285  0.36128303     0.32300
H884        H  0.29961126  0.26424788  0.32113451     0.35000
loop_ 
_geom_bond_atom_site_label_1 
_geom_bond_atom_site_label_2 
_geom_bond_distance 
_geom_bond_site_symmetry_2 
_ccdc_geom_bond_type 
C1           N19   1.350       .  A
C1           C38   1.458       .  S
C1          C802   1.470       .  S
N2           N19   1.326       .  A
N2           N24   1.319       .  A
N2          Co39   2.086       .  S
C3           N28   1.347       .  A
C3           C41   1.464       .  S
C3           H48   1.082       .  S
H4           C45   1.081       .  S
C5           N29   1.340       .  A
C5            C9   1.456       .  S
C5           H34   1.082       .  S
Co6          N24   2.082       .  S
Co6          N14   2.074       .  S
Co6          N46   2.067       .  S
Co6          N22   2.076       .  S
Co6         Cl50   2.437       .  S
N7           C45   1.348       .  A
N7           N14   1.320       .  A
N7           Co8   2.096       .  S
Co8          N11   2.079       .  S
Co8          N28   2.092       .  S
Co8          N15   2.084       .  S
Co8         Cl50   2.462       .  S
C9           N47   1.347       .  A
C9          C766   1.459       .  S
N10          N17   1.321       .  A
N10          N40   1.328       .  A
N10         Co43   2.096       .  S
N11          N29   1.322       .  A
N11          N47   1.321       .  A
N12          C41   1.345       .  A
N12          N22   1.321       .  A
H13          C38   1.082       .  S
N14          N35   1.320       .  A
N15          N33   1.323       .  A
N15          N20   1.324       .  A
C16          N20   1.347       .  A
C16          C44   1.464       .  S
C16         C838   1.473       .  S
N17          C32   1.339       .  A
N17         Co39   2.083       .  S
C18          N46   1.337       .  A
C18          C21   1.454       .  S
C18          H52   1.082       .  S
C21          N42   1.349       .  A
C21         C820   1.461       .  S
N22          N28   1.319       .  A
N23          C49   1.335       .  A
N23          N25   1.321       .  A
N23         Co39   2.080       .  S
N24          C38   1.340       .  A
N25          N53   1.328       .  A
N25         Co43   2.088       .  S
H26          C49   1.081       .  S
H27          C44   1.082       .  S
N29         Co43   2.082       .  S
N30          N42   1.324       .  A
N30          N46   1.318       .  A
N30         Co39   2.083       .  S
C31          N35   1.346       .  A
C31          C45   1.466       .  S
C31         C874   1.472       .  S
C32          C51   1.457       .  S
C32          H36   1.082       .  S
N33          C44   1.345       .  A
N33         Co43   2.103       .  S
C37          N53   1.351       .  A
C37          C49   1.454       .  S
C37         C748   1.467       .  S
Co39        Cl50   2.447       .  S
N40          C51   1.352       .  A
C41         C787   1.469       .  S
Co43        Cl50   2.456       .  S
C51         C859   1.474       .  S
C54          N72   1.349       .  A
C54          C91   1.461       .  S
C54         C697   1.468       .  S
N55          N72   1.323       .  A
N55          N77   1.320       .  A
N55         Co92   2.087       .  S
C56          N81   1.337       .  A
C56          C94   1.455       .  S
C56         H101   1.082       .  S
H57          C98   1.082       .  S
C58          N82   1.344       .  A
C58          C62   1.465       .  S
C58          H87   1.081       .  S
Co59         N77   2.085       .  S
Co59         N67   2.095   1_455  S
Co59         N99   2.097   1_556  S
Co59         N75   2.090   1_456  S
Co59       Cl103   2.465       .  S
N60          C98   1.338       .  A
N60          N67   1.320       .  A
N60         Co61   2.081       .  S
Co61         N64   2.083       .  S
Co61         N81   2.078   1_556  S
Co61         N68   2.089   1_556  S
Co61       Cl103   2.441   1_655  S
C62         N100   1.349       .  A
C62         C676   1.478       .  S
N63          N70   1.321       .  A
N63          N93   1.324       .  A
N63         Co96   2.088       .  S
N64          N82   1.321       .  A
N64         N100   1.326       .  A
N65          C94   1.350       .  A
N65          N75   1.327       .  A
H66          C91   1.082       .  S
N67          N88   1.327       .  A
N68          N86   1.320       .  A
N68          N73   1.324       .  A
C69          N73   1.349       .  A
C69          C97   1.461       .  S
C69         C643   1.472       .  S
N70          C85   1.340       .  A
N70         Co92   2.078       .  S
C71          N99   1.344       .  A
C71          C74   1.462       .  S
C71         H105   1.082       .  S
C74          N95   1.349       .  A
C74         C604   1.474       .  S
N75          N81   1.321       .  A
N76         C102   1.339       .  A
N76          N78   1.322       .  A
N76         Co92   2.089   1_554  S
N77          C91   1.343       .  A
N78         N106   1.330       .  A
N78         Co96   2.099   1_554  S
H79         C102   1.081       .  S
H80          C97   1.081       .  S
N82         Co96   2.101   1_655  S
N83          N95   1.325       .  A
N83          N99   1.322       .  A
N83         Co92   2.085   1_554  S
C84          N88   1.353       .  A
C84          C98   1.457       .  S
C84         C730   1.470       .  S
C85         C104   1.455       .  S
C85          H89   1.081       .  S
N86          C97   1.344       .  A
N86         Co96   2.087   1_654  S
C90         N106   1.353       .  A
C90         C102   1.460       .  S
C90         C625   1.479       .  S
Co92       Cl103   2.442       .  S
N93         C104   1.351       .  A
C94         C712   1.467       .  S
Co96       Cl103   2.465       .  S
C104        C658   1.467       .  S
C107        C108   1.536       .  S
C107        C113   1.539       .  S
C107        C111   1.541       .  S
C107        C589   1.513       .  S
C108        H115   1.086       .  S
C108        C109   1.364       .  D
C109        C110   1.537       .  S
C109        C841   1.473       .  S
C110        C114   1.536       .  S
C110        C112   1.533       .  S
C110        H116   1.111       .  S
C111        H117   1.084       .  S
C111        C112   1.362       .  D
C112        C568   1.466       .  S
C113        H118   1.086       .  S
C113        C114   1.368       .  D
C114        C733   1.477       .  S
C119        N137   1.350       .  A
C119        C156   1.458       .  S
C119        C517   1.471       .  S
N120        N137   1.326       .  A
N120        N142   1.319       .  A
N120       Co157   2.086   1_546  S
C121        N146   1.346       .  A
C121        C159   1.465       .  S
C121        H166   1.082       .  S
H122        C163   1.081       .  S
C123        N147   1.344       .  A
C123        C127   1.460       .  S
C123        H152   1.081       .  S
Co124       N142   2.084   1_554  S
Co124       N132   2.077   1_554  S
Co124       N164   2.082       .  S
Co124       N140   2.083       .  S
Co124      Cl168   2.452   1_545  S
N125        C163   1.341       .  A
N125        N132   1.320       .  A
N125       Co126   2.089   1_546  S
Co126       N129   2.096   1_554  S
Co126       N146   2.101   1_565  S
Co126       N133   2.093       .  S
Co126      Cl168   2.454       .  S
C127        N165   1.351       .  A
C127        C496   1.476       .  S
N128        N135   1.321       .  A
N128        N158   1.329       .  A
N128       Co161   2.099   1_556  S
N129        N147   1.321       .  A
N129        N165   1.325       .  A
N130        C159   1.348       .  A
N130        N140   1.323       .  A
H131        C156   1.081       .  S
N132        N153   1.324       .  A
N133        N151   1.322       .  A
N133        N138   1.327       .  A
C134        N138   1.351       .  A
C134        C162   1.461       .  S
C134        C532   1.477       .  S
N135        C150   1.339       .  A
N135       Co157   2.086   1_556  S
C136        N164   1.341       .  A
C136        C139   1.459       .  S
C136        H170   1.082       .  S
C139        N160   1.351       .  A
C139        C460   1.472       .  S
N140        N146   1.321       .  A
N141        C167   1.340       .  A
N141        N143   1.321       .  A
N141       Co157   2.082       .  S
N142        C156   1.341       .  A
N143        N171   1.326       .  A
N143       Co161   2.093       .  S
H144        C167   1.082       .  S
H145        C162   1.081       .  S
N147       Co161   2.090   1_556  S
N148        N160   1.326       .  A
N148        N164   1.320       .  A
N148       Co157   2.093   1_545  S
C149        N153   1.347       .  A
C149        C163   1.459       .  S
C149        C586   1.467       .  S
C150        C169   1.458       .  S
C150        H154   1.081       .  S
N151        C162   1.342       .  A
N151       Co161   2.094       .  S
C155        N171   1.351       .  A
C155        C167   1.457       .  S
C155        C481   1.471       .  S
Co157      Cl168   2.453       .  S
N158        C169   1.353       .  A
C159        C442   1.476       .  S
Co161      Cl168   2.458       .  S
C169        C553   1.478       .  S
C172        C173   1.531       .  S
C172        C178   1.523       .  S
C172        C176   1.524       .  S
C172        C424   1.516       .  S
C173        H180   1.082       .  S
C173        C174   1.367       .  D
C174        C175   1.548       .  S
C174        C661   1.483       .  S
C175        C179   1.554       .  S
C175        C177   1.554       .  S
C175        H181   1.109       .  S
C176        H182   1.085       .  S
C176        C177   1.369       .  D
C177        C550   1.493       .  S
C178        H183   1.083       .  S
C178        C179   1.370       .  D
C179        C856   1.494       .  S
C184        N202   1.346       .  A
C184        C221   1.463       .  S
C184        C409   1.470       .  S
N185        N202   1.322       .  A
N185        N207   1.321       .  A
N185       Co222   2.083       .  S
C186        N211   1.336       .  A
C186        C224   1.454       .  S
C186        H231   1.081       .  S
H187        C228   1.081       .  S
C188        N212   1.346       .  A
C188        C192   1.466       .  S
C188        H217   1.081       .  S
Co189       N207   2.090       .  S
Co189       N197   2.096       .  S
Co189       N229   2.081   1_545  S
Co189       N205   2.086   1_545  S
Co189      Cl233   2.459   1_655  S
N190        C228   1.337       .  A
N190        N197   1.320       .  A
N190       Co191   2.075   1_655  S
Co191       N194   2.074       .  S
Co191       N211   2.069   1_445  S
Co191       N198   2.081   1_545  S
Co191      Cl233   2.441       .  S
C192        N230   1.347       .  A
C192        C319   1.471       .  S
N193        N200   1.321       .  A
N193        N223   1.325       .  A
N193       Co226   2.082       .  S
N194        N212   1.320       .  A
N194        N230   1.322       .  A
N195        C224   1.350       .  A
N195        N205   1.325       .  A
H196        C221   1.082       .  S
N197        N218   1.327       .  A
N198        N216   1.319       .  A
N198        N203   1.324       .  A
C199        N203   1.348       .  A
C199        C227   1.461       .  S
C199        C427   1.470       .  S
N200        C215   1.340       .  A
N200       Co222   2.086   1_455  S
C201        N229   1.337       .  A
C201        C204   1.456       .  S
C201        H235   1.081       .  S
C204        N225   1.355       .  A
C204        C391   1.478       .  S
N205        N211   1.319       .  A
N206        C232   1.347       .  A
N206        N208   1.322       .  A
N206       Co222   2.096   1_465  S
N207        C221   1.345       .  A
N208        N236   1.322       .  A
N208       Co226   2.088   1_565  S
H209        C232   1.081       .  S
H210        C227   1.082       .  S
N212       Co226   2.099       .  S
N213        N225   1.330       .  A
N213        N229   1.322       .  A
N213       Co222   2.104   1_565  S
C214        N218   1.353       .  A
C214        C228   1.455       .  S
C214        C571   1.471       .  S
C215        C234   1.457       .  S
C215        H219   1.082       .  S
N216        C227   1.343       .  A
N216       Co226   2.087   1_565  S
C220        N236   1.348       .  A
C220        C232   1.464       .  S
C220        C373   1.475       .  S
Co222      Cl233   2.450   1_655  S
N223        C234   1.349       .  A
C224        C355   1.463       .  S
Co226      Cl233   2.456       .  S
C234        C334   1.467       .  S
C237        C238   1.528       .  S
C237        C243   1.529       .  S
C237        C241   1.530       .  S
C237        C823   1.511       .  S
C238        H245   1.085       .  S
C238        C239   1.367       .  D
C239        C240   1.552       .  S
C239        C535   1.486       .  S
C240        C244   1.546       .  S
C240        C242   1.548       .  S
C240        H246   1.110       .  S
C241        H247   1.081       .  S
C241        C242   1.363       .  D
C242        C640   1.482       .  S
C243        H248   1.086       .  S
C243        C244   1.366       .  D
C244        C388   1.481       .  S
C249        C250   1.529       .  S
C249        C255   1.532       .  S
C249        C253   1.537       .  S
C249        C607   1.516       .  S
C250        H257   1.085       .  S
C250        C251   1.367       .  D
C251        C252   1.547       .  S
C251        C337   1.486       .  S
C252        C256   1.539       .  S
C252        C254   1.542       .  S
C252        H258   1.108       .  S
C253        H259   1.082       .  S
C253        C254   1.370       .  D
C254        C877   1.488       .  S
C255        H260   1.086       .  S
C255        C256   1.365       .  D
C256        C463   1.471       .  S
C261        C262   1.539       .  S
C261        C267   1.531       .  S
C261        C265   1.533       .  S
C261        C715   1.516       .  S
C262        H269   1.078       .  S
C262        C263   1.369       .  D
C263        C264   1.544       .  S
C263        C784   1.490       .  S
C264        C268   1.540       .  S
C264        C266   1.541       .  S
C264        H270   1.108       .  S
C265        H271   1.086       .  S
C265        C266   1.366       .  D
C266        C406   1.481       .  S
C267        H272   1.086       .  S
C267        C268   1.364       .  D
C268        C445   1.473       .  S
C273        C274   1.528       .  S
C273        C279   1.533       .  S
C273        C277   1.527       .  S
C273        C805   1.516       .  S
C274        H281   1.086       .  S
C274        C275   1.368       .  D
C275        C276   1.547       .  S
C275        C622   1.486       .  S
C276        C280   1.546       .  S
C276        C278   1.552       .  S
C276        H282   1.109       .  S
C277        H283   1.085       .  S
C277        C278   1.369       .  D
C278        C478   1.488       .  S
C279        H284   1.083       .  S
C279        C280   1.368       .  D
C280        C370   1.486       .  S
C285        C286   1.540       .  S
C285        C291   1.535       .  S
C285        C289   1.536       .  S
C285        C514   1.514       .  S
C286        H293   1.084       .  S
C286        C287   1.367       .  D
C287        C288   1.535       .  S
C287        C316   1.474       .  S
C288        C292   1.534       .  S
C288        C290   1.533       .  S
C288        H294   1.111       .  S
C289        H295   1.086       .  S
C289        C290   1.363       .  D
C290        C769   1.465       .  S
C291        H296   1.086       .  S
C291        C292   1.367       .  D
C292        C694   1.473       .  S
C297        C298   1.521       .  S
C297        C303   1.525       .  S
C297        C301   1.522       .  S
C297        C352   1.509       .  S
C298        H305   1.083       .  S
C298        C299   1.369       .  D
C299        C300   1.554       .  S
C299        C751   1.488       .  S
C300        C304   1.555       .  S
C300        C302   1.556       .  S
C300        H306   1.109       .  S
C301        H307   1.085       .  S
C301        C302   1.369       .  D
C302        C499   1.492       .  S
C303        H308   1.083       .  S
C303        C304   1.364       .  D
C304        C679   1.489       .  S
C309        N315   1.346       .  A
C309        C314   1.385       .  A
C309        C310   1.407       .  A
C310        H321   1.082       .  S
C310        C311   1.406       .  A
C311        C320   1.384       .  A
C311        C312   1.385       .  A
C312        N318   1.341       .  A
C312        C313   1.401       .  A
C313        H322   1.082       .  S
C313        C314   1.400       .  A
C314        C317   1.376       .  A
N315        C316   1.356       .  A
N315        H325   1.045       .  S
C316        C317   1.392       .  A
C317        H323   1.082       .  S
N318        C319   1.354       .  A
N318        H326   1.045       .  S
C319        C320   1.396       .  A
C320        H324   1.082       .  S
C327        N333   1.342       .  A
C327        C332   1.385       .  A
C327        C328   1.400       .  A
C328        H339   1.083       .  S
C328        C329   1.401       .  A
C329        C338   1.372       .  A
C329        C330   1.383       .  A
C330        N336   1.346       .  A
C330        C331   1.405       .  A
C331        H340   1.082       .  S
C331        C332   1.405       .  A
C332        C335   1.379       .  A
N333        C334   1.354       .  A
N333        H343   1.045       .  S
C334        C335   1.395       .  A
C335        H341   1.082       .  S
N336        C337   1.358       .  A
N336        H344   1.043       .  S
C337        C338   1.399       .  A
C338        H342   1.081       .  S
C345        N351   1.342       .  A
C345        C350   1.383       .  A
C345        C346   1.404       .  A
C346        H357   1.082       .  S
C346        C347   1.403       .  A
C347        C356   1.379       .  A
C347        C348   1.385       .  A
C348        N354   1.338       .  A
C348        C349   1.398       .  A
C349        H358   1.083       .  S
C349        C350   1.397       .  A
C350        C353   1.371       .  A
N351        C352   1.358       .  A
N351        H361   1.045       .  S
C352        C353   1.397       .  A
C353        H359   1.081       .  S
N354        C355   1.353       .  A
N354        H362   1.044       .  S
C355        C356   1.394       .  A
C356        H360   1.082       .  S
C363        N369   1.352       .  A
C363        C368   1.383       .  A
C363        C364   1.412       .  A
C364        H375   1.082       .  S
C364        C365   1.412       .  A
C365        C374   1.389       .  A
C365        C366   1.384       .  A
C366        N372   1.340       .  A
C366        C367   1.398       .  A
C367        H376   1.083       .  S
C367        C368   1.397       .  A
C368        C371   1.370       .  A
N369        C370   1.360       .  A
N369        H379   1.044       .  S
C370        C371   1.395       .  A
C371        H377   1.082       .  S
N372        C373   1.353       .  A
N372        H380   1.045       .  S
C373        C374   1.401       .  A
C374        H378   1.082       .  S
C381        N387   1.339       .  A
C381        C386   1.384       .  A
C381        C382   1.400       .  A
C382        H393   1.083       .  S
C382        C383   1.398       .  A
C383        C392   1.374       .  A
C383        C384   1.384       .  A
C384        N390   1.350       .  A
C384        C385   1.411       .  A
C385        H394   1.082       .  S
C385        C386   1.411       .  A
C386        C389   1.389       .  A
N387        C388   1.354       .  A
N387        H397   1.045       .  S
C388        C389   1.399       .  A
C389        H395   1.082       .  S
N390        C391   1.359       .  A
N390        H398   1.044       .  S
C391        C392   1.394       .  A
C392        H396   1.082       .  S
C399        N405   1.345       .  A
C399        C404   1.383       .  A
C399        C400   1.405       .  A
C400        H411   1.082       .  S
C400        C401   1.405       .  A
C401        C410   1.382       .  A
C401        C402   1.385       .  A
C402        N408   1.341       .  A
C402        C403   1.402       .  A
C403        H412   1.083       .  S
C403        C404   1.401       .  A
C404        C407   1.375       .  A
N405        C406   1.357       .  A
N405        H415   1.044       .  S
C406        C407   1.397       .  A
C407        H413   1.082       .  S
N408        C409   1.355       .  A
N408        H416   1.045       .  S
C409        C410   1.396       .  A
C410        H414   1.082       .  S
C417        N423   1.344       .  A
C417        C422   1.382       .  A
C417        C418   1.405       .  A
C418        H429   1.082       .  S
C418        C419   1.405       .  A
C419        C428   1.381       .  A
C419        C420   1.385       .  A
C420        N426   1.342       .  A
C420        C421   1.402       .  A
C421        H430   1.082       .  S
C421        C422   1.401       .  A
C422        C425   1.376       .  A
N423        C424   1.358       .  A
N423        H433   1.045       .  S
C424        C425   1.400       .  A
C425        H431   1.080       .  S
N426        C427   1.354       .  A
N426        H434   1.045       .  S
C427        C428   1.396       .  A
C428        H432   1.082       .  S
C435        N441   1.342       .  A
C435        C440   1.384       .  A
C435        C436   1.403       .  A
C436        H447   1.082       .  S
C436        C437   1.402       .  A
C437        C446   1.378       .  A
C437        C438   1.385       .  A
C438        N444   1.346       .  A
C438        C439   1.407       .  A
C439        H448   1.082       .  S
C439        C440   1.407       .  A
C440        C443   1.385       .  A
N441        C442   1.355       .  A
N441        H451   1.045       .  S
C442        C443   1.397       .  A
C443        H449   1.082       .  S
N444        C445   1.355       .  A
N444        H452   1.044       .  S
C445        C446   1.393       .  A
C446        H450   1.082       .  S
C453        N459   1.344       .  A
C453        C458   1.385       .  A
C453        C454   1.403       .  A
C454        H465   1.082       .  S
C454        C455   1.403       .  A
C455        C464   1.378       .  A
C455        C456   1.385       .  A
C456        N462   1.345       .  A
C456        C457   1.404       .  A
C457        H466   1.082       .  S
C457        C458   1.404       .  A
C458        C461   1.379       .  A
N459        C460   1.355       .  A
N459        H469   1.045       .  S
C460        C461   1.395       .  A
C461        H467   1.082       .  S
N462        C463   1.354       .  A
N462        H470   1.045       .  S
C463        C464   1.393       .  A
C464        H468   1.082       .  S
C471        N477   1.348       .  A
C471        C476   1.383       .  A
C471        C472   1.406       .  A
C472        H483   1.082       .  S
C472        C473   1.407       .  A
C473        C482   1.380       .  A
C473        C474   1.385       .  A
C474        N480   1.344       .  A
C474        C475   1.401       .  A
C475        H484   1.082       .  S
C475        C476   1.402       .  A
C476        C479   1.373       .  A
N477        C478   1.358       .  A
N477        H487   1.044       .  S
C478        C479   1.399       .  A
C479        H485   1.082       .  S
N480        C481   1.354       .  A
N480        H488   1.045       .  S
C481        C482   1.397       .  A
C482        H486   1.082       .  S
C489        N495   1.342       .  A
C489        C494   1.385       .  A
C489        C490   1.399       .  A
C490        H501   1.083       .  S
C490        C491   1.399       .  A
C491        C500   1.370       .  A
C491        C492   1.383       .  A
C492        N498   1.353       .  A
C492        C493   1.411       .  A
C493        H502   1.082       .  S
C493        C494   1.412       .  A
C494        C497   1.386       .  A
N495        C496   1.353       .  A
N495        H505   1.045       .  S
C496        C497   1.400       .  A
C497        H503   1.082       .  S
N498        C499   1.360       .  A
N498        H506   1.044       .  S
C499        C500   1.397       .  A
C500        H504   1.082       .  S
C507        N513   1.344       .  A
C507        C512   1.383       .  A
C507        C508   1.404       .  A
C508        H519   1.082       .  S
C508        C509   1.403       .  A
C509        C518   1.379       .  A
C509        C510   1.384       .  A
C510        N516   1.343       .  A
C510        C511   1.404       .  A
C511        H520   1.082       .  S
C511        C512   1.403       .  A
C512        C515   1.377       .  A
N513        C514   1.358       .  A
N513        H523   1.043       .  S
C514        C515   1.398       .  A
C515        H521   1.082       .  S
N516        C517   1.356       .  A
N516        H524   1.044       .  S
C517        C518   1.395       .  A
C518        H522   1.082       .  S
C525        N531   1.347       .  A
C525        C530   1.384       .  A
C525        C526   1.409       .  A
C526        H537   1.082       .  S
C526        C527   1.407       .  A
C527        C536   1.385       .  A
C527        C528   1.383       .  A
C528        N534   1.341       .  A
C528        C529   1.403       .  A
C529        H538   1.083       .  S
C529        C530   1.402       .  A
C530        C533   1.379       .  A
N531        C532   1.358       .  A
N531        H541   1.044       .  S
C532        C533   1.395       .  A
C533        H539   1.082       .  S
N534        C535   1.358       .  A
N534        H542   1.045       .  S
C535        C536   1.398       .  A
C536        H540   1.082       .  S
C543        N549   1.354       .  A
C543        C548   1.382       .  A
C543        C544   1.413       .  A
C544        H555   1.082       .  S
C544        C545   1.414       .  A
C545        C554   1.389       .  A
C545        C546   1.384       .  A
C546        N552   1.341       .  A
C546        C547   1.398       .  A
C547        H556   1.083       .  S
C547        C548   1.398       .  A
C548        C551   1.369       .  A
N549        C550   1.361       .  A
N549        H559   1.044       .  S
C550        C551   1.397       .  A
C551        H557   1.082       .  S
N552        C553   1.353       .  A
N552        H560   1.045       .  S
C553        C554   1.401       .  A
C554        H558   1.082       .  S
C561        N567   1.344       .  A
C561        C566   1.386       .  A
C561        C562   1.402       .  A
C562        H573   1.082       .  S
C562        C563   1.403       .  A
C563        C572   1.376       .  A
C563        C564   1.385       .  A
C564        N570   1.345       .  A
C564        C565   1.403       .  A
C565        H574   1.082       .  S
C565        C566   1.403       .  A
C566        C569   1.377       .  A
N567        C568   1.353       .  A
N567        H577   1.045       .  S
C568        C569   1.391       .  A
C569        H575   1.082       .  S
N570        C571   1.355       .  A
N570        H578   1.044       .  S
C571        C572   1.395       .  A
C572        H576   1.082       .  S
C579        N585   1.342       .  A
C579        C584   1.385       .  A
C579        C580   1.402       .  A
C580        H591   1.082       .  S
C580        C581   1.401       .  A
C581        C590   1.376       .  A
C581        C582   1.383       .  A
C582        N588   1.343       .  A
C582        C583   1.404       .  A
C583        H592   1.082       .  S
C583        C584   1.403       .  A
C584        C587   1.378       .  A
N585        C586   1.354       .  A
N585        H595   1.044       .  S
C586        C587   1.395       .  A
C587        H593   1.082       .  S
N588        C589   1.357       .  A
N588        H596   1.045       .  S
C589        C590   1.399       .  A
C590        H594   1.080       .  S
C597        N603   1.344       .  A
C597        C602   1.384       .  A
C597        C598   1.404       .  A
C598        H609   1.082       .  S
C598        C599   1.403       .  A
C599        C608   1.379       .  A
C599        C600   1.382       .  A
C600        N606   1.344       .  A
C600        C601   1.405       .  A
C601        H610   1.082       .  S
C601        C602   1.405       .  A
C602        C605   1.381       .  A
N603        C604   1.355       .  A
N603        H613   1.045       .  S
C604        C605   1.396       .  A
C605        H611   1.082       .  S
N606        C607   1.358       .  A
N606        H614   1.045       .  S
C607        C608   1.400       .  A
C608        H612   1.080       .  S
C615        N621   1.338       .  A
C615        C620   1.384       .  A
C615        C616   1.399       .  A
C616        H627   1.083       .  S
C616        C617   1.397       .  A
C617        C626   1.373       .  A
C617        C618   1.383       .  A
C618        N624   1.351       .  A
C618        C619   1.413       .  A
C619        H628   1.082       .  S
C619        C620   1.412       .  A
C620        C623   1.390       .  A
N621        C622   1.354       .  A
N621        H631   1.048       .  S
C622        C623   1.401       .  A
C623        H629   1.082       .  S
N624        C625   1.360       .  A
N624        H632   1.045       .  S
C625        C626   1.392       .  A
C626        H630   1.082       .  S
C633        N639   1.338       .  A
C633        C638   1.384       .  A
C633        C634   1.401       .  A
C634        H645   1.083       .  S
C634        C635   1.398       .  A
C635        C644   1.375       .  A
C635        C636   1.384       .  A
C636        N642   1.347       .  A
C636        C637   1.409       .  A
C637        H646   1.082       .  S
C637        C638   1.408       .  A
C638        C641   1.387       .  A
N639        C640   1.356       .  A
N639        H649   1.045       .  S
C640        C641   1.397       .  A
C641        H647   1.082       .  S
N642        C643   1.358       .  A
N642        H650   1.044       .  S
C643        C644   1.392       .  A
C644        H648   1.083       .  S
C651        N657   1.346       .  A
C651        C656   1.384       .  A
C651        C652   1.409       .  A
C652        H663   1.082       .  S
C652        C653   1.408       .  A
C653        C662   1.387       .  A
C653        C654   1.384       .  A
C654        N660   1.337       .  A
C654        C655   1.399       .  A
C655        H664   1.083       .  S
C655        C656   1.396       .  A
C656        C659   1.373       .  A
N657        C658   1.358       .  A
N657        H667   1.045       .  S
C658        C659   1.390       .  A
C659        H665   1.083       .  S
N660        C661   1.356       .  A
N660        H668   1.044       .  S
C661        C662   1.399       .  A
C662        H666   1.082       .  S
C669        N675   1.343       .  A
C669        C674   1.385       .  A
C669        C670   1.398       .  A
C670        H681   1.083       .  S
C670        C671   1.399       .  A
C671        C680   1.367       .  A
C671        C672   1.383       .  A
C672        N678   1.354       .  A
C672        C673   1.412       .  A
C673        H682   1.082       .  S
C673        C674   1.413       .  A
C674        C677   1.386       .  A
N675        C676   1.353       .  A
N675        H685   1.044       .  S
C676        C677   1.401       .  A
C677        H683   1.082       .  S
N678        C679   1.360       .  A
N678        H686   1.045       .  S
C679        C680   1.396       .  A
C680        H684   1.082       .  S
C687        N693   1.345       .  A
C687        C692   1.385       .  A
C687        C688   1.407       .  A
C688        H699   1.082       .  S
C688        C689   1.406       .  A
C689        C698   1.383       .  A
C689        C690   1.385       .  A
C690        N696   1.341       .  A
C690        C691   1.400       .  A
C691        H700   1.082       .  S
C691        C692   1.399       .  A
C692        C695   1.375       .  A
N693        C694   1.356       .  A
N693        H703   1.045       .  S
C694        C695   1.392       .  A
C695        H701   1.082       .  S
N696        C697   1.353       .  A
N696        H704   1.045       .  S
C697        C698   1.395       .  A
C698        H702   1.082       .  S
C705        N711   1.346       .  A
C705        C710   1.384       .  A
C705        C706   1.407       .  A
C706        H717   1.082       .  S
C706        C707   1.406       .  A
C707        C716   1.380       .  A
C707        C708   1.383       .  A
C708        N714   1.340       .  A
C708        C709   1.399       .  A
C709        H718   1.082       .  S
C709        C710   1.398       .  A
C710        C713   1.372       .  A
N711        C712   1.357       .  A
N711        H721   1.045       .  S
C712        C713   1.391       .  A
C713        H719   1.082       .  S
N714        C715   1.358       .  A
N714        H722   1.041       .  S
C715        C716   1.400       .  A
C716        H720   1.082       .  S
C723        N729   1.342       .  A
C723        C728   1.385       .  A
C723        C724   1.403       .  A
C724        H735   1.082       .  S
C724        C725   1.402       .  A
C725        C734   1.379       .  A
C725        C726   1.384       .  A
C726        N732   1.345       .  A
C726        C727   1.407       .  A
C727        H736   1.082       .  S
C727        C728   1.405       .  A
C728        C731   1.384       .  A
N729        C730   1.355       .  A
N729        H739   1.045       .  S
C730        C731   1.395       .  A
C731        H737   1.082       .  S
N732        C733   1.356       .  A
N732        H740   1.045       .  S
C733        C734   1.394       .  A
C734        H738   1.082       .  S
C741        N747   1.337       .  A
C741        C746   1.385       .  A
C741        C742   1.394       .  A
C742        H753   1.083       .  S
C742        C743   1.395       .  A
C743        C752   1.364       .  A
C743        C744   1.382       .  A
C744        N750   1.351       .  A
C744        C745   1.410       .  A
C745        H754   1.082       .  S
C745        C746   1.411       .  A
C746        C749   1.385       .  A
N747        C748   1.351       .  A
N747        H757   1.045       .  S
C748        C749   1.398       .  A
C749        H755   1.082       .  S
N750        C751   1.360       .  A
N750        H758   1.044       .  S
C751        C752   1.397       .  A
C752        H756   1.081       .  S
C759        N765   1.344       .  A
C759        C764   1.386       .  A
C759        C760   1.403       .  A
C760        H771   1.082       .  S
C760        C761   1.403       .  A
C761        C770   1.377       .  A
C761        C762   1.386       .  A
C762        N768   1.340       .  A
C762        C763   1.398       .  A
C763        H772   1.082       .  S
C763        C764   1.398       .  A
C764        C767   1.371       .  A
N765        C766   1.354       .  A
N765        H775   1.045       .  S
C766        C767   1.390       .  A
C767        H773   1.083       .  S
N768        C769   1.352       .  A
N768        H776   1.045       .  S
C769        C770   1.393       .  A
C770        H774   1.082       .  S
C777        N783   1.340       .  A
C777        C782   1.382       .  A
C777        C778   1.400       .  A
C778        H789   1.083       .  S
C778        C779   1.399       .  A
C779        C788   1.372       .  A
C779        C780   1.385       .  A
C780        N786   1.348       .  A
C780        C781   1.408       .  A
C781        H790   1.082       .  S
C781        C782   1.407       .  A
C782        C785   1.383       .  A
N783        C784   1.358       .  A
N783        H793   1.044       .  S
C784        C785   1.400       .  A
C785        H791   1.081       .  S
N786        C787   1.357       .  A
N786        H794   1.044       .  S
C787        C788   1.392       .  A
C788        H792   1.083       .  S
C795        N801   1.344       .  A
C795        C800   1.385       .  A
C795        C796   1.403       .  A
C796        H807   1.082       .  S
C796        C797   1.403       .  A
C797        C806   1.378       .  A
C797        C798   1.383       .  A
C798        N804   1.343       .  A
C798        C799   1.405       .  A
C799        H808   1.082       .  S
C799        C800   1.404       .  A
C800        C803   1.379       .  A
N801        C802   1.355       .  A
N801        H811   1.045       .  S
C802        C803   1.395       .  A
C803        H809   1.082       .  S
N804        C805   1.358       .  A
N804        H812   1.045       .  S
C805        C806   1.400       .  A
C806        H810   1.081       .  S
C813        N819   1.342       .  A
C813        C818   1.385       .  A
C813        C814   1.402       .  A
C814        H825   1.082       .  S
C814        C815   1.401       .  A
C815        C824   1.376       .  A
C815        C816   1.383       .  A
C816        N822   1.340       .  A
C816        C817   1.400       .  A
C817        H826   1.083       .  S
C817        C818   1.399       .  A
C818        C821   1.374       .  A
N819        C820   1.354       .  A
N819        H829   1.044       .  S
C820        C821   1.392       .  A
C821        H827   1.083       .  S
N822        C823   1.358       .  A
N822        H830   1.042       .  S
C823        C824   1.397       .  A
C824        H828   1.082       .  S
C831        N837   1.344       .  A
C831        C836   1.384       .  A
C831        C832   1.405       .  A
C832        H843   1.082       .  S
C832        C833   1.404       .  A
C833        C842   1.380       .  A
C833        C834   1.385       .  A
C834        N840   1.344       .  A
C834        C835   1.404       .  A
C835        H844   1.082       .  S
C835        C836   1.404       .  A
C836        C839   1.381       .  A
N837        C838   1.356       .  A
N837        H847   1.045       .  S
C838        C839   1.394       .  A
C839        H845   1.082       .  S
N840        C841   1.354       .  A
N840        H848   1.044       .  S
C841        C842   1.395       .  A
C842        H846   1.082       .  S
C849        N855   1.352       .  A
C849        C854   1.382       .  A
C849        C850   1.411       .  A
C850        H861   1.082       .  S
C850        C851   1.412       .  A
C851        C860   1.386       .  A
C851        C852   1.385       .  A
C852        N858   1.341       .  A
C852        C853   1.398       .  A
C853        H862   1.083       .  S
C853        C854   1.398       .  A
C854        C857   1.368       .  A
N855        C856   1.361       .  A
N855        H865   1.044       .  S
C856        C857   1.399       .  A
C857        H863   1.081       .  S
N858        C859   1.353       .  A
N858        H866   1.045       .  S
C859        C860   1.399       .  A
C860        H864   1.082       .  S
C867        N873   1.339       .  A
C867        C872   1.384       .  A
C867        C868   1.399       .  A
C868        H879   1.083       .  S
C868        C869   1.398       .  A
C869        C878   1.372       .  A
C869        C870   1.383       .  A
C870        N876   1.349       .  A
C870        C871   1.410       .  A
C871        H880   1.082       .  S
C871        C872   1.410       .  A
C872        C875   1.387       .  A
N873        C874   1.353       .  A
N873        H883   1.045       .  S
C874        C875   1.399       .  A
C875        H881   1.082       .  S
N876        C877   1.360       .  A
N876        H884   1.044       .  S
C877        C878   1.396       .  A
C878        H882   1.082       .  S
