geometry optimzed in LAMMPS
_audit_creation_date              2020-11-30 
_audit_creation_method            'lammps2cif' 
_symmetry_space_group_name_H-M    'P1' 
_symmetry_Int_Tables_number       1 
_symmetry_cell_setting            triclinic 
loop_ 
_symmetry_equiv_pos_as_xyz 
  x,y,z 
_cell_length_a                    39.36516059 
_cell_length_b                    39.412094510344446 
_cell_length_c                    31.44990863808897 
_cell_angle_alpha                 89.18799277029818 
_cell_angle_beta                  92.7357094160148 
_cell_angle_gamma                 120.38465671167263 
loop_ 
_atom_site_label 
_atom_site_type_symbol 
_atom_site_fract_x 
_atom_site_fract_y 
_atom_site_fract_z 
_atom_site_charge 
C1          C  0.35708782  0.25800705  0.45314410     0.86800
C2          C  0.35427028  0.29467274  0.46023862    -0.53400
C3          C  0.37208207  0.31494663  0.99733632     0.09700
C4          C  0.39558661  0.29815310  0.02285077     0.20700
C5          C  0.40157972  0.27381151  0.45480720    -0.54200
C6          C  0.42272645  0.29531616  0.99047678     0.09800
C7          C  0.34430143  0.23487709  0.49468317    -0.53700
C8          C  0.36476430  0.25418670  0.03132711     0.10400
H9          H  0.33828388  0.30317037  0.43798384     0.14900
H10         H  0.41276849  0.31617520  0.05078317     0.00700
H11         H  0.41488304  0.26803361  0.42872155     0.15200
H12         H  0.32241608  0.20425639  0.99540459     0.15000
C13         C  0.02787330  0.31532493  0.47305270     0.86800
C14         C  0.48283736  0.29427510  0.47120730    -0.53400
C15         C  0.46677224  0.31048162  0.99573003     0.09700
C16         C  0.99887987  0.34548806  0.02464598     0.20700
C17         C  0.04380405  0.35883376  0.46887746    -0.54200
C18         C  0.02785048  0.37584118  0.99238754     0.09800
C19         C  0.03674728  0.31086411  0.51939711    -0.53700
C20         C  0.02314302  0.32733167  0.04710027     0.10400
H21         H  0.46544911  0.26741094  0.45274485     0.14900
H22         H  0.48694534  0.35753262  0.04627299     0.00700
H23         H  0.06792765  0.37508553  0.44799822     0.15200
H24         H  0.05184645  0.29553317  0.03035652     0.15000
C25         C  0.08152518  0.47122073  0.43441863     0.86800
C26         C  0.05322703  0.42862719  0.44024810    -0.53400
C27         C  0.03729921  0.41747708  0.97949637     0.09700
C28         C  0.04663214  0.45487402  0.00764574     0.20700
C29         C  0.05371628  0.48690422  0.43898357    -0.54200
C30         C  0.03901715  0.48379582  0.97897239     0.09800
C31         C  0.10934645  0.48619698  0.97530999    -0.53700
C32         C  0.09173115  0.47793652  0.01367843     0.10400
H33         H  0.04780397  0.40828421  0.41436215     0.14900
H34         H  0.02989223  0.44759950  0.03685518     0.00700
H35         H  0.05128147  0.00527039  0.41488197     0.15200
H36         H  0.14121839  0.00311412  0.97366606     0.15000
C37         C  0.05434813  0.08735009  0.47352068     0.86800
C38         C  0.06279253  0.05454665  0.47128823    -0.53400
C39         C  0.04036247  0.02157419  0.99423974     0.09700
C40         C  0.01532183  0.02944063  0.02661408     0.20700
C41         C  0.51013113  0.06947660  0.47168341    -0.54200
C42         C  0.48854124  0.03857969  0.99777178     0.09800
C43         C  0.06583424  0.10004622  0.01970368    -0.53700
C44         C  0.04505318  0.07097536  0.04852631     0.10400
H45         H  0.08597953  0.05807273  0.45107362     0.14900
H46         H  0.49962133  0.50450980  0.04890721     0.00700
H47         H  0.49756826  0.08320317  0.45152377     0.15200
H48         H  0.08391021  0.13029149  0.03004157     0.15000
C49         C  0.37945348  0.50138248  0.46124284     0.86800
C50         C  0.42418433  0.02513022  0.46231839    -0.53400
C51         C  0.44378818  0.51865634  0.99595686     0.09700
C52         C  0.41449077  0.48848265  0.02800466     0.20700
C53         C  0.37057241  0.45893491  0.46497079    -0.54200
C54         C  0.38677773  0.45091306  0.99995252     0.09800
C55         C  0.36808311  0.50903196  0.50493263    -0.53700
C56         C  0.38789243  0.50544304  0.03977702     0.10400
H57         H  0.43840811  0.04373671  0.43561069     0.14900
H58         H  0.42921264  0.48288026  0.05589463     0.00700
H59         H  0.35155617  0.43618329  0.44250007     0.15200
H60         H  0.34348101  0.01308978  0.01013773     0.15000
C61         C  0.31523116  0.35558362  0.05406746     0.86800
C62         C  0.33953138  0.33471254  0.05035025    -0.53400
C63         C  0.36026280  0.34304727  0.51398062     0.09700
C64         C  0.35513334  0.37281800  0.48509591     0.20700
C65         C  0.34446895  0.39922833  0.04912489    -0.54200
C66         C  0.36662247  0.40909944  0.51433609     0.09800
C67         C  0.28965969  0.34316729  0.01243397    -0.53700
C68         C  0.30984636  0.35312602  0.47640629     0.10400
H69         H  0.33605253  0.31122436  0.07139744     0.14900
H70         H  0.37178310  0.38027031  0.45557683     0.00700
H71         H  0.34203522  0.42094035  0.06717707     0.15200
H72         H  0.25765269  0.32623838  0.51118320     0.15000
Fe73       Fe  0.16597137  0.23008545  0.25327264     1.65800
Fe74       Fe  0.07569276  0.22277540  0.25705476     1.73200
Fe75       Fe  0.15892281  0.31305899  0.25922996     1.54400
O76         O  0.19905574  0.31765056  0.30572839    -0.81400
O77         O  0.06574922  0.25747413  0.21338098    -0.79700
O78         O  0.21077720  0.26932291  0.29544705    -0.83900
O79         O  0.19552534  0.26333771  0.20232021    -0.78700
O80         O  0.12598169  0.31267570  0.30881704    -0.80500
O81         O  0.07056627  0.18692769  0.20773446    -0.83200
C82         C  0.20703348  0.29879994  0.19253354     0.97500
C83         C  0.21766702  0.30008683  0.31534168     1.05000
O84         O  0.13351761  0.25536113  0.25576515    -1.12200
O85         O  0.07892223  0.18561499  0.30165076    -0.74700
O86         O  0.14060532  0.19687594  0.30574184    -0.78100
O87         O  0.19632411  0.32014835  0.21114327    -0.78800
C88         C  0.10631739  0.18173038  0.31957983     0.96400
O89         O  0.12618625  0.18538537  0.21065582    -0.76800
O90         O  0.07293718  0.25280341  0.30752470    -0.82000
C91         C  0.08513712  0.29272159  0.20034884     0.99100
C92         C  0.09402307  0.28656009  0.32405748     1.05000
O93         O  0.12036783  0.31569288  0.21403257    -0.77600
C94         C  0.09130057  0.17314618  0.19526199     1.03300
Fe95       Fe  0.33096027  0.10751248  0.24710059     1.65800
Fe96       Fe  0.24813124  0.01616906  0.23320800     1.73200
Fe97       Fe  0.23993561  0.09927508  0.23586586     1.54400
O98         O  0.26937073  0.13698778  0.28661617    -0.81400
O99         O  0.20977829  0.01180881  0.18222005    -0.79700
O100        O  0.32926994  0.14458236  0.29254556    -0.83900
O101        O  0.33423577  0.14443770  0.19842881    -0.78700
O102        O  0.20017954  0.05965453  0.27879206    -0.80500
O103        O  0.28772734  0.01926183  0.18865305    -0.83200
C104        C  0.31096695  0.15448934  0.18094623     0.97500
C105        C  0.30364947  0.15261397  0.30418513     1.05000
O106        O  0.27294676  0.07425384  0.23875959    -1.12200
O107        O  0.28290147  0.01240332  0.28343939    -0.74700
O108        O  0.33318853  0.07342642  0.29606551    -0.78100
O109        O  0.27587107  0.14132171  0.19232588    -0.78800
C110        C  0.31370561  0.03712494  0.30492174     0.96400
O111        O  0.34248257  0.07627236  0.20313711    -0.76800
O112        O  0.20595693  0.00614888  0.27758496    -0.82000
C113        C  0.19629716  0.03323205  0.16762959     0.99100
C114        C  0.19054825  0.02524923  0.29176427     1.05000
O115        O  0.20542100  0.06588330  0.18452816    -0.77600
C116        C  0.32383562  0.04399889  0.18247083     1.03300
C117        C  0.29018844  0.34714637  0.09343105    -0.05000
C118        C  0.25561235  0.35026327  0.09138014    -0.02100
C119        C  0.22735399  0.33235759  0.12243006     0.02900
C120        C  0.23589566  0.31669256  0.15904955    -0.05000
C121        C  0.27370243  0.32124387  0.16548541    -0.02100
C122        C  0.30114302  0.33749065  0.13325722     0.02800
C123        C  0.25022434  0.37447542  0.05967658     0.37500
C124        C  0.28496927  0.31085387  0.20608287     0.37500
C125        C  0.34204120  0.35066419  0.14406333     0.35900
C126        C  0.18873747  0.32816680  0.11539383     0.35900
N127        N  0.37480065  0.36293905  0.15435909    -0.38900
N128        N  0.15768508  0.32404908  0.10901094    -0.38900
N129        N  0.29391022  0.30276469  0.23857134    -0.38400
N130        N  0.24582659  0.39405343  0.53487839    -0.38400
C131        C  0.24638049  0.31515604  0.35325604    -0.05000
C132        C  0.26140704  0.35430054  0.36842475    -0.02100
C133        C  0.27922371  0.36561191  0.40967502     0.02900
C134        C  0.28818399  0.34054796  0.43384733    -0.05000
C135        C  0.27058903  0.30096705  0.42063627    -0.02100
C136        C  0.25244965  0.28885966  0.37956092     0.02800
C137        C  0.25773096  0.38323661  0.34254355     0.37500
C138        C  0.26462816  0.27179135  0.45250704     0.37500
C139        C  0.23802631  0.24852969  0.36628848     0.35900
C140        C  0.27993341  0.39874038  0.43003719     0.35900
N141        N  0.22670945  0.21632356  0.35601266    -0.38900
N142        N  0.27922087  0.42473538  0.44577186    -0.38900
N143        N  0.25953014  0.25021413  0.48003118    -0.38400
N144        N  0.25473161  0.40639015  0.32222881    -0.38400
C145        C  0.32675249  0.02442367  0.34412715    -0.05000
C146        C  0.32487289  0.03955284  0.38344241    -0.02100
C147        C  0.34288973  0.03414880  0.42078735     0.02900
C148        C  0.36054250  0.00993681  0.42055168    -0.05000
C149        C  0.36319006  0.49581609  0.37953171    -0.02100
C150        C  0.34602151  0.00265364  0.34231323     0.02800
C151        C  0.30473096  0.06191194  0.38523849     0.37500
C152        C  0.38601939  0.47658274  0.37483821     0.37500
C153        C  0.34974728  0.98855785  0.30147394     0.35900
C154        C  0.34588942  0.05790344  0.45696433     0.35900
N155        N  0.35325417  0.97719124  0.26922244    -0.38900
N156        N  0.34620744  0.07724190  0.98449713    -0.38900
N157        N  0.40416219  0.46123826  0.37077053    -0.38400
N158        N  0.28853021  0.07946187  0.38675913    -0.38400
C159        C  0.38259331  0.01875728  0.08306880    -0.05000
C160        C  0.38688041  0.05655894  0.08735105    -0.02100
C161        C  0.37163439  0.06586197  0.12240182     0.02900
C162        C  0.34554982  0.03568155  0.14951881    -0.05000
C163        C  0.34268663  0.49854776  0.14593828    -0.02100
C164        C  0.36563388  0.49264638  0.11664748     0.02800
C165        C  0.40701863  0.08644442  0.05582468     0.37500
C166        C  0.31699895  0.46630578  0.17269199     0.37500
C167        C  0.37877071  0.46527493  0.12703017     0.35900
C168        C  0.38347922  0.10667099  0.13019016     0.35900
N169        N  0.39060389  0.44454112  0.13642855    -0.38900
N170        N  0.39423191  0.13950401  0.13663286    -0.38900
N171        N  0.29578120  0.44001782  0.19309606    -0.38400
N172        N  0.42201257  0.11097763  0.53099728    -0.38400
C173        C  0.07352690  0.14177348  0.16093572    -0.05000
C174        C  0.04851442  0.14337509  0.12800330    -0.02100
C175        C  0.03346391  0.11549604  0.09436038     0.02900
C176        C  0.04375107  0.08584364  0.09203537    -0.05000
C177        C  0.06504507  0.08166786  0.12701633    -0.02100
C178        C  0.08038534  0.10970435  0.16097098     0.02800
C179        C  0.04109498  0.17596361  0.12596806     0.37500
C180        C  0.07181973  0.04890597  0.12757181     0.37500
C181        C  0.10397459  0.10602269  0.19549723     0.35900
C182        C  0.51324491  0.12084585  0.05802763     0.35900
N183        N  0.12328118  0.10397668  0.22317046    -0.38900
N184        N  0.49897185  0.12730930  0.02841926    -0.38900
N185        N  0.07650375  0.02223067  0.12875968    -0.38400
N186        N  0.03523096  0.20192165  0.12393386    -0.38400
C187        C  0.09719467  0.15794205  0.35835089    -0.05000
C188        C  0.06858576  0.11808788  0.35560569    -0.02100
C189        C  0.05515490  0.09618682  0.39282494     0.02900
C190        C  0.07178493  0.11352778  0.43413124    -0.05000
C191        C  0.10416770  0.15270960  0.43571064    -0.02100
C192        C  0.11510890  0.17524990  0.39822013     0.02800
C193        C  0.05285502  0.09955423  0.31402768     0.37500
C194        C  0.12874172  0.16977035  0.47403991     0.37500
C195        C  0.14365935  0.21688380  0.40116840     0.35900
C196        C  0.52353947  0.05492689  0.38757263     0.35900
N197        N  0.16604933  0.25016346  0.40452212    -0.38900
N198        N  0.49739004  0.02304451  0.38339328    -0.38900
N199        N  0.14965955  0.18434782  0.50369243    -0.38400
N200        N  0.54122961  0.08375593  0.28070922    -0.38400
C201        C  0.16827810  0.01980590  0.12937671    -0.05000
C202        C  0.17450598  0.04536017  0.09480622    -0.02100
C203        C  0.14848273  0.03247611  0.05834049     0.02900
C204        C  0.11530997  0.49363368  0.05560515    -0.05000
C205        C  0.10602499  0.47058298  0.09305855    -0.02100
C206        C  0.13292430  0.48302311  0.12896934     0.02800
C207        C  0.20709981  0.08561269  0.09687869     0.37500
C208        C  0.06764119  0.43595455  0.09714787     0.37500
C209        C  0.12270623  0.45933142  0.16713775     0.35900
C210        C  0.15452974  0.06060458  0.02495532     0.35900
N211        N  0.11432552  0.44070420  0.19774250    -0.38900
N212        N  0.15974479  0.08329640  0.49859057    -0.38900
N213        N  0.03687443  0.40900675  0.10261672    -0.38400
N214        N  0.23221714  0.11813344  0.09816900    -0.38400
C215        C  0.10564796  0.47949101  0.39309788    -0.05000
C216        C  0.09641865  0.49192757  0.35363008    -0.02100
C217        C  0.12394318  0.00645907  0.32071202     0.02900
C218        C  0.16007686  0.00685059  0.32522444    -0.05000
C219        C  0.16589315  0.98793999  0.36097514    -0.02100
C220        C  0.13834368  0.97306846  0.39355374     0.02800
C221        C  0.05680734  0.48402591  0.34348686     0.37500
C222        C  0.20032331  0.98352051  0.36466849     0.37500
C223        C  0.14320933  0.94954341  0.42663118     0.35900
C224        C  0.11310014  0.01704056  0.28007304     0.35900
N225        N  0.14742238  0.93091813  0.95287941    -0.38900
N226        N  0.10377846  0.52411012  0.24710834    -0.38900
N227        N  0.22733412  0.97926858  0.36793308    -0.38400
N228        N  0.02510712  0.47711198  0.33425805    -0.38400
C229        C  0.04428331  0.30333844  0.43595329    -0.05000
C230        C  0.08303913  0.30876294  0.43841697    -0.02100
C231        C  0.10067106  0.30637550  0.40118676     0.02900
C232        C  0.07893191  0.29528297  0.36192457    -0.05000
C233        C  0.04148343  0.29130405  0.35868393    -0.02100
C234        C  0.02647077  0.29952369  0.39406274     0.02800
C235        C  0.10689990  0.32052155  0.47785313     0.37500
C236        C  0.01970264  0.28222826  0.31770978     0.37500
C237        C  0.49666141  0.30950518  0.38456996     0.35900
C238        C  0.14194125  0.31766065  0.40292496     0.35900
N239        N  0.47413860  0.31951380  0.37646612    -0.38900
N240        N  0.17522985  0.32809733  0.40465915    -0.38900
N241        N  0.00224389  0.27493741  0.28524071    -0.38400
N242        N  0.12673770  0.32998938  0.00882107    -0.38400
C243        C  0.06642119  0.30724786  0.16687159    -0.05000
C244        C  0.08960415  0.34296396  0.14466605    -0.02100
C245        C  0.07435800  0.35125723  0.10686288     0.02900
C246        C  0.03442227  0.32693279  0.09309964    -0.05000
C247        C  0.01006240  0.29415025  0.11780002    -0.02100
C248        C  0.02557807  0.28440154  0.15446229     0.02800
C249        C  0.12975915  0.37116888  0.15910982     0.37500
C250        C  0.47032959  0.26553109  0.10089216     0.37500
C251        C  0.99897597  0.25002902  0.17834151     0.35900
C252        C  0.10131197  0.38194175  0.07905037     0.35900
N253        N  0.47716416  0.22109779  0.19629652    -0.38900
N254        N  0.12288186  0.40585474  0.55656075    -0.38900
N255        N  0.43918379  0.24299316  0.08730674    -0.38400
N256        N  0.16175109  0.39399268  0.17034743    -0.38400
C257        C  0.31373805  0.18127539  0.33999890    -0.05000
C258        C  0.34678061  0.21966745  0.33887233    -0.02100
C259        C  0.35491068  0.24684020  0.37221868     0.02900
C260        C  0.33564574  0.23404644  0.41118221    -0.05000
C261        C  0.29928074  0.19717841  0.40967817    -0.02100
C262        C  0.28845114  0.17144429  0.37411829     0.02800
C263        C  0.37281421  0.23138832  0.30372008     0.37500
C264        C  0.27061517  0.18564763  0.44212215     0.37500
C265        C  0.25139850  0.13415799  0.37331548     0.35900
C266        C  0.38138063  0.28843113  0.36547627     0.35900
N267        N  0.22175075  0.10465904  0.37276774    -0.38900
N268        N  0.40153227  0.32177968  0.35992929    -0.38900
N269        N  0.24683086  0.17415796  0.96731415    -0.38400
N270        N  0.39419456  0.24063573  0.27621829    -0.38400
C271        C  0.32529365  0.18081199  0.14363851    -0.05000
C272        C  0.34099568  0.22172632  0.14770105    -0.02100
C273        C  0.35909667  0.24687230  0.11297450     0.02900
C274        C  0.35784805  0.23096191  0.07242604    -0.05000
C275        C  0.34658770  0.19040486  0.07057567    -0.02100
C276        C  0.32871034  0.16539663  0.10504469     0.02800
C277        C  0.33840097  0.23806798  0.18756994     0.37500
C278        C  0.35706010  0.17488740  0.03502776     0.37500
C279        C  0.31253673  0.12327261  0.10020950     0.35900
C280        C  0.38522939  0.28818964  0.12169427     0.35900
N281        N  0.29909411  0.08966267  0.09618078    -0.38900
N282        N  0.40847183  0.32056165  0.12989182    -0.38900
N283        N  0.36539649  0.16257015  0.50668430    -0.38400
N284        N  0.33577478  0.25130331  0.21899399    -0.38400
C285        C  0.35708380  0.25802344  0.95314338     0.86800
C286        C  0.35427321  0.29469356  0.96023753    -0.53400
C287        C  0.37207594  0.31492504  0.49733834     0.09700
C288        C  0.39558171  0.29813541  0.52285498     0.20700
C289        C  0.40157452  0.27382231  0.95480206    -0.54200
C290        C  0.42272707  0.29530573  0.49048420     0.09800
C291        C  0.34429839  0.23489645  0.99468460    -0.53700
C292        C  0.36476200  0.25416719  0.53132813     0.10400
H293        H  0.33828768  0.30319362  0.93798291     0.14900
H294        H  0.41276039  0.31615841  0.55078785     0.00700
H295        H  0.41487346  0.26804096  0.92871504     0.15200
H296        H  0.32241973  0.20423572  0.49539948     0.15000
C297        C  0.02787550  0.31532929  0.97305930     0.86800
C298        C  0.48283334  0.29427893  0.97118859    -0.53400
C299        C  0.46677421  0.31047944  0.49574145     0.09700
C300        C  0.99887411  0.34547654  0.52464405     0.20700
C301        C  0.04379692  0.35883530  0.96886709    -0.54200
C302        C  0.02785393  0.37583586  0.49239742     0.09800
C303        C  0.03676284  0.31088548  0.01940413    -0.53700
C304        C  0.02312587  0.32730733  0.54709542     0.10400
H305        H  0.46544467  0.26742233  0.95271570     0.14900
H306        H  0.48694481  0.35754203  0.54627143     0.00700
H307        H  0.06791680  0.37508312  0.94798221     0.15200
H308        H  0.05182532  0.29550611  0.53034744     0.15000
C309        C  0.08153325  0.47123134  0.93441637     0.86800
C310        C  0.05323288  0.42863745  0.94024199    -0.53400
C311        C  0.03729646  0.41746899  0.47950390     0.09700
C312        C  0.04662875  0.45486707  0.50765038     0.20700
C313        C  0.05372802  0.48691840  0.93898178    -0.54200
C314        C  0.03900950  0.48378503  0.47897630     0.09800
C315        C  0.10934092  0.48619180  0.47530965    -0.53700
C316        C  0.09172762  0.47793357  0.51367896     0.10400
H317        H  0.04780969  0.40829607  0.91435379     0.14900
H318        H  0.02989090  0.44759391  0.53686142     0.00700
H319        H  0.05125048  0.00523709  0.91487406     0.15200
H320        H  0.14122601  0.00310931  0.47367569     0.15000
C321        C  0.05435755  0.08733526  0.97351658     0.86800
C322        C  0.06279033  0.05452449  0.97128118    -0.53400
C323        C  0.04036945  0.02159419  0.49424566     0.09700
C324        C  0.01532085  0.02945183  0.52661734     0.20700
C325        C  0.51012973  0.06948168  0.97168284    -0.54200
C326        C  0.48853945  0.03857521  0.49777082     0.09800
C327        C  0.06581987  0.10006235  0.51970732    -0.53700
C328        C  0.04504326  0.07098886  0.54852905     0.10400
H329        H  0.08597146  0.05804305  0.95106217     0.14900
H330        H  0.49961674  0.50451710  0.54890603     0.00700
H331        H  0.49756316  0.08320445  0.95152126     0.15200
H332        H  0.08388960  0.13030745  0.53004514     0.15000
C333        C  0.37948354  0.50141413  0.96122323     0.86800
C334        C  0.42417980  0.02512829  0.96233024    -0.53400
C335        C  0.44377284  0.51865257  0.49596552     0.09700
C336        C  0.41448743  0.48846052  0.52800701     0.20700
C337        C  0.37056774  0.45895693  0.96497564    -0.54200
C338        C  0.38678985  0.45089285  0.49994417     0.09800
C339        C  0.36812682  0.50910135  0.00490588    -0.53700
C340        C  0.38786869  0.50539212  0.53979292     0.10400
H341        H  0.43840039  0.04374176  0.93562519     0.14900
H342        H  0.42921840  0.48286195  0.55589120     0.00700
H343        H  0.35153950  0.43620213  0.94251592     0.15200
H344        H  0.34349941  0.01313163  0.51011668     0.15000
C345        C  0.31523178  0.35557115  0.55406504     0.86800
C346        C  0.33952519  0.33469302  0.55034825    -0.53400
C347        C  0.36026874  0.34306921  0.01398183     0.09700
C348        C  0.35513330  0.37283848  0.98509893     0.20700
C349        C  0.34447688  0.39921372  0.54912081    -0.54200
C350        C  0.36661647  0.40911825  0.01434115     0.09800
C351        C  0.28966047  0.34315828  0.51243080    -0.53700
C352        C  0.30984524  0.35313982  0.97640951     0.10400
H353        H  0.33604300  0.31120397  0.57139535     0.14900
H354        H  0.37178321  0.38029472  0.95557963     0.00700
H355        H  0.34205287  0.42093357  0.56717932     0.15200
H356        H  0.25765252  0.32624238  0.01118631     0.15000
Fe357      Fe  0.16597187  0.23009180  0.75327810     1.65800
Fe358      Fe  0.07568847  0.22276505  0.75706340     1.73200
Fe359      Fe  0.15890918  0.31305571  0.75922607     1.54400
O360        O  0.19903263  0.31765321  0.80573921    -0.81400
O361        O  0.06573300  0.25747127  0.71340986    -0.79700
O362        O  0.21077918  0.26934372  0.79544537    -0.83900
O363        O  0.19551588  0.26333641  0.70231709    -0.78700
O364        O  0.12595023  0.31266868  0.80880074    -0.80500
O365        O  0.07057023  0.18694060  0.70772744    -0.83200
C366        C  0.20703074  0.29880080  0.69253473     0.97500
C367        C  0.21765509  0.30009990  0.81534796     1.05000
O368        O  0.13351175  0.25535891  0.75576873    -1.12200
O369        O  0.07891965  0.18558791  0.80163733    -0.74700
O370        O  0.14061578  0.19688834  0.80575353    -0.78100
O371        O  0.19632613  0.32015095  0.71115005    -0.78800
C372        C  0.10632075  0.18171924  0.81957701     0.96400
O373        O  0.12618267  0.18538255  0.71066967    -0.76800
O374        O  0.07293677  0.25277491  0.80755015    -0.82000
C375        C  0.08512403  0.29270945  0.70035141     0.99100
C376        C  0.09400813  0.28654170  0.82406309     1.05000
O377        O  0.12036258  0.31567791  0.71401165    -0.77600
C378        C  0.09130169  0.17315277  0.69526440     1.03300
Fe379      Fe  0.33096385  0.10751757  0.74711327     1.65800
Fe380      Fe  0.24814003  0.01616988  0.73321994     1.73200
Fe381      Fe  0.23993439  0.09926924  0.73588073     1.54400
O382        O  0.26936889  0.13698604  0.78662854    -0.81400
O383        O  0.20978173  0.01180293  0.68223297    -0.79700
O384        O  0.32927096  0.14458809  0.79255640    -0.83900
O385        O  0.33423199  0.14443657  0.69843913    -0.78700
O386        O  0.20018491  0.05964818  0.77880885    -0.80500
O387        O  0.28773676  0.01926832  0.68866315    -0.83200
C388        C  0.31095916  0.15448229  0.68095518     0.97500
C389        C  0.30364846  0.15261686  0.80419597     1.05000
O390        O  0.27295043  0.07425381  0.73877301    -1.12200
O391        O  0.28291546  0.01241146  0.78345056    -0.74700
O392        O  0.33319766  0.07343679  0.79608065    -0.78100
O393        O  0.27586386  0.14131374  0.69233699    -0.78800
C394        C  0.31371768  0.03713480  0.80493460     0.96400
O395        O  0.34249047  0.07627927  0.70315038    -0.76800
O396        O  0.20596506  0.00614415  0.77759710    -0.82000
C397        C  0.19629600  0.03322343  0.66764578     0.99100
C398        C  0.19055470  0.02524236  0.79177756     1.05000
O399        O  0.20541753  0.06587316  0.68454648    -0.77600
C400        C  0.32384460  0.04400702  0.68248144     1.03300
C401        C  0.29018971  0.34713728  0.59342965    -0.05000
C402        C  0.25562064  0.35026624  0.59138157    -0.02100
C403        C  0.22736170  0.33236698  0.62243311     0.02900
C404        C  0.23589508  0.31669190  0.65905008    -0.05000
C405        C  0.27369518  0.32122571  0.66548049    -0.02100
C406        C  0.30113738  0.33747066  0.63325335     0.02800
C407        C  0.25024117  0.37448338  0.55967759     0.37500
C408        C  0.28495422  0.31081844  0.70607178     0.37500
C409        C  0.34203333  0.35063612  0.64406126     0.35900
C410        C  0.18875128  0.32819038  0.61539892     0.35900
N411        N  0.37479155  0.36290647  0.65435920    -0.38900
N412        N  0.15770342  0.32408389  0.60901634    -0.38900
N413        N  0.29388864  0.30271466  0.73855519    -0.38400
N414        N  0.24580077  0.39404082  0.03487874    -0.38400
C415        C  0.24636620  0.31517153  0.85326494    -0.05000
C416        C  0.26138085  0.35431182  0.86844282    -0.02100
C417        C  0.27920636  0.36562335  0.90969003     0.02900
C418        C  0.28818044  0.34056351  0.93385153    -0.05000
C419        C  0.27058942  0.30098419  0.92063607    -0.02100
C420        C  0.25244709  0.28887823  0.87956189     0.02800
C421        C  0.25768093  0.38324218  0.84257663     0.37500
C422        C  0.26463365  0.27180686  0.95250275     0.37500
C423        C  0.23803189  0.24855144  0.86628327     0.35900
C424        C  0.27991700  0.39874900  0.93006111     0.35900
N425        N  0.22672145  0.21634793  0.85600206    -0.38900
N426        N  0.27920746  0.42474291  0.94580294    -0.38900
N427        N  0.25953966  0.25022815  0.98002415    -0.38400
N428        N  0.25466110  0.40639114  0.82227574    -0.38400
C429        C  0.32676473  0.02443240  0.84413846    -0.05000
C430        C  0.32485553  0.03953400  0.88345876    -0.02100
C431        C  0.34286043  0.03411983  0.92080808     0.02900
C432        C  0.36053565  0.00992718  0.92056635    -0.05000
C433        C  0.36315525  0.49577520  0.87951681    -0.02100
C434        C  0.34605637  0.00268476  0.84232045     0.02800
C435        C  0.30469881  0.06187883  0.88525480     0.37500
C436        C  0.38594918  0.47650459  0.87482089     0.37500
C437        C  0.34982581  0.98863341  0.80147361     0.35900
C438        C  0.34581949  0.05784267  0.95699899     0.35900
N439        N  0.35336950  0.97730734  0.76921423    -0.38900
N440        N  0.34630863  0.07732928  0.48445098    -0.38900
N441        N  0.40406635  0.46113320  0.87075094    -0.38400
N442        N  0.28848739  0.07941840  0.88677491    -0.38400
C443        C  0.38259132  0.01877114  0.58306090    -0.05000
C444        C  0.38688240  0.05657385  0.58735191    -0.02100
C445        C  0.37163889  0.06587444  0.62240737     0.02900
C446        C  0.34555806  0.03569281  0.64952532    -0.05000
C447        C  0.34267564  0.49853545  0.64594280    -0.02100
C448        C  0.36562763  0.49262695  0.61666618     0.02800
C449        C  0.40703322  0.08646778  0.55583798     0.37500
C450        C  0.31696102  0.46628927  0.67267539     0.37500
C451        C  0.37875190  0.46524714  0.62705775     0.35900
C452        C  0.38348507  0.10668304  0.63020222     0.35900
N453        N  0.39057488  0.44450629  0.63646290    -0.38900
N454        N  0.39423823  0.13951545  0.63664991    -0.38900
N455        N  0.29571596  0.43999404  0.69305358    -0.38400
N456        N  0.42198391  0.11094173  0.03096786    -0.38400
C457        C  0.07352782  0.14178295  0.66093660    -0.05000
C458        C  0.04851853  0.14339034  0.62800420    -0.02100
C459        C  0.03345556  0.11550566  0.59436746     0.02900
C460        C  0.04374046  0.08585206  0.59203960    -0.05000
C461        C  0.06503433  0.08167295  0.62701819    -0.02100
C462        C  0.08037600  0.10970735  0.66097448     0.02800
C463        C  0.04111491  0.17598924  0.62596214     0.37500
C464        C  0.07180763  0.04891026  0.62756865     0.37500
C465        C  0.10395352  0.10601566  0.69550667     0.35900
C466        C  0.51324625  0.12083494  0.55802843     0.35900
N467        N  0.12324940  0.10396172  0.72318665    -0.38900
N468        N  0.49897601  0.12729735  0.52841684    -0.38900
N469        N  0.07649114  0.02223456  0.62875041    -0.38400
N470        N  0.03526462  0.20195608  0.62392239    -0.38400
C471        C  0.09719948  0.15792722  0.85834608    -0.05000
C472        C  0.06859217  0.11807197  0.85560038    -0.02100
C473        C  0.05516051  0.09617081  0.89281986     0.02900
C474        C  0.07179482  0.11351047  0.93412578    -0.05000
C475        C  0.10417913  0.15269072  0.93570431    -0.02100
C476        C  0.11511506  0.17523343  0.89821561     0.02800
C477        C  0.05286466  0.09953656  0.81402267     0.37500
C478        C  0.12875969  0.16974703  0.97403034     0.37500
C479        C  0.14365861  0.21686894  0.90116733     0.35900
C480        C  0.52354924  0.05494273  0.88757103     0.35900
N481        N  0.16604174  0.25015009  0.90452364    -0.38900
N482        N  0.49740522  0.02305786  0.88338950    -0.38900
N483        N  0.14968278  0.18432010  0.00368028    -0.38400
N484        N  0.54122663  0.08378394  0.78070854    -0.38400
C485        C  0.16827782  0.01979925  0.62939147    -0.05000
C486        C  0.17451177  0.04535439  0.59482049    -0.02100
C487        C  0.14849279  0.03247318  0.55835121     0.02900
C488        C  0.11530713  0.49363924  0.55560273    -0.05000
C489        C  0.10602875  0.47059211  0.59305801    -0.02100
C490        C  0.13293014  0.48304044  0.62896654     0.02800
C491        C  0.20710405  0.08560739  0.59689915     0.37500
C492        C  0.06764993  0.43595712  0.59714976     0.37500
C493        C  0.12271850  0.45935297  0.66713797     0.35900
C494        C  0.15454900  0.06060252  0.52496415     0.35900
N495        N  0.11434377  0.44072960  0.69774548    -0.38900
N496        N  0.15971869  0.08329824  0.99858362    -0.38900
N497        N  0.03688701  0.40900310  0.60261795    -0.38400
N498        N  0.23221858  0.11812920  0.59819573    -0.38400
C499        C  0.10565599  0.47950695  0.89309444    -0.05000
C500        C  0.09641639  0.49193207  0.85362453    -0.02100
C501        C  0.12394892  0.00645410  0.82071535     0.02900
C502        C  0.16007927  0.00683980  0.82523173    -0.05000
C503        C  0.16588777  0.98792131  0.86097932    -0.02100
C504        C  0.13833617  0.97305253  0.89355566     0.02800
C505        C  0.05679829  0.48401270  0.84348472     0.37500
C506        C  0.20031043  0.98348887  0.86467000     0.37500
C507        C  0.14320087  0.94953108  0.92663847     0.35900
C508        C  0.11311273  0.01704010  0.78007514     0.35900
N509        N  0.14743073  0.93092666  0.45286745    -0.38900
N510        N  0.10376043  0.52411592  0.74710521    -0.38900
N511        N  0.22731453  0.97922575  0.86793077    -0.38400
N512        N  0.02509228  0.47708409  0.83426173    -0.38400
C513        C  0.04428113  0.30333336  0.93596352    -0.05000
C514        C  0.08304110  0.30876826  0.93842028    -0.02100
C515        C  0.10066598  0.30637206  0.90118823     0.02900
C516        C  0.07891707  0.29526140  0.86193236    -0.05000
C517        C  0.04145781  0.29125774  0.85870169    -0.02100
C518        C  0.02645391  0.29949265  0.89407701     0.02800
C519        C  0.10691196  0.32054517  0.97784953     0.37500
C520        C  0.01965061  0.28213322  0.81774105     0.37500
C521        C  0.49668066  0.30954353  0.88455866     0.35900
C522        C  0.14193564  0.31765646  0.90291951     0.35900
N523        N  0.47416348  0.31956100  0.87646213    -0.38900
N524        N  0.17522324  0.32808935  0.90464948    -0.38900
N525        N  0.00216846  0.27479961  0.78528406    -0.38400
N526        N  0.12671746  0.32995157  0.50883043    -0.38400
C527        C  0.06640349  0.30722755  0.66686992    -0.05000
C528        C  0.08958212  0.34294639  0.64466608    -0.02100
C529        C  0.07433605  0.35123528  0.60686044     0.02900
C530        C  0.03440275  0.32690509  0.59309405    -0.05000
C531        C  0.01004605  0.29411768  0.61778982    -0.02100
C532        C  0.02556255  0.28437151  0.65445324     0.02800
C533        C  0.12973291  0.37116007  0.65911424     0.37500
C534        C  0.47034109  0.26556422  0.60090843     0.37500
C535        C  0.99896416  0.24998922  0.67832215     0.35900
C536        C  0.10128879  0.38192180  0.57904861     0.35900
N537        N  0.47717900  0.22114219  0.69632318    -0.38900
N538        N  0.12290682  0.40587334  0.05656259    -0.38900
N539        N  0.43919242  0.24302799  0.58732838    -0.38400
N540        N  0.16172202  0.39399049  0.67035367    -0.38400
C541        C  0.31373542  0.18128094  0.84000713    -0.05000
C542        C  0.34677402  0.21967519  0.83887594    -0.02100
C543        C  0.35490171  0.24685093  0.87221848     0.02900
C544        C  0.33563823  0.23405987  0.91118337    -0.05000
C545        C  0.29927669  0.19718805  0.90968379    -0.02100
C546        C  0.28845004  0.17144983  0.87412795     0.02800
C547        C  0.37280764  0.23139459  0.80372386     0.37500
C548        C  0.27061116  0.18565596  0.94212817     0.37500
C549        C  0.25140250  0.13415870  0.87333150     0.35900
C550        C  0.38137423  0.28844108  0.86547368     0.35900
N551        N  0.22175878  0.10465585  0.87278928    -0.38900
N552        N  0.40152940  0.32178881  0.85992510    -0.38900
N553        N  0.24683454  0.17415107  0.46730762    -0.38400
N554        N  0.39418831  0.24064092  0.77622250    -0.38400
C555        C  0.32528121  0.18079957  0.64364387    -0.05000
C556        C  0.34098160  0.22171356  0.64770188    -0.02100
C557        C  0.35908559  0.24685681  0.61297485     0.02900
C558        C  0.35783938  0.23094365  0.57242877    -0.05000
C559        C  0.34657860  0.19038640  0.57058303    -0.02100
C560        C  0.32870000  0.16538091  0.60505354     0.02800
C561        C  0.33838582  0.23805769  0.68756851     0.37500
C562        C  0.35705315  0.17486673  0.53503951     0.37500
C563        C  0.31252883  0.12325662  0.60022452     0.35900
C564        C  0.38522454  0.28817276  0.62169510     0.35900
N565        N  0.29908781  0.08964636  0.59620168    -0.38900
N566        N  0.40847290  0.32054265  0.62989371    -0.38900
N567        N  0.36540147  0.16259098  0.00667056    -0.38400
N568        N  0.33575883  0.25129361  0.71899167    -0.38400
C569        C  0.35714286  0.75799014  0.45305428     0.86800
C570        C  0.35430461  0.79464357  0.46017124    -0.53400
C571        C  0.37210545  0.81487577  0.99729157     0.09700
C572        C  0.39562743  0.79809934  0.02278288     0.20700
C573        C  0.40164025  0.77381250  0.45470762    -0.54200
C574        C  0.42277881  0.79529504  0.99040291     0.09800
C575        C  0.34437236  0.73485074  0.49459002    -0.53700
C576        C  0.36482013  0.75413116  0.03124860     0.10400
H577        H  0.33829681  0.80313135  0.43793375     0.14900
H578        H  0.41280415  0.81612347  0.05071305     0.00700
H579        H  0.41495362  0.76805266  0.42861818     0.15200
H580        H  0.32249099  0.70419668  0.99530029     0.15000
C581        C  0.02785078  0.81530983  0.47308332     0.86800
C582        C  0.48293379  0.79434245  0.47111232    -0.53400
C583        C  0.46682811  0.81049430  0.99567088     0.09700
C584        C  0.99890061  0.84550371  0.02467752     0.20700
C585        C  0.04375461  0.85880689  0.46884206    -0.54200
C586        C  0.02785238  0.87582896  0.99238912     0.09800
C587        C  0.03678738  0.81091388  0.51942559    -0.53700
C588        C  0.02317727  0.82735880  0.04711919     0.10400
H589        H  0.46558052  0.76752481  0.45256772     0.14900
H590        H  0.48691444  0.85748129  0.04626420     0.00700
H591        H  0.06786823  0.87503033  0.44794465     0.15200
H592        H  0.05186455  0.79554482  0.03036336     0.15000
C593        C  0.08159922  0.97131807  0.43450083     0.86800
C594        C  0.05336348  0.92871521  0.44032817    -0.53400
C595        C  0.03741109  0.91751116  0.97956640     0.09700
C596        C  0.04668371  0.95488521  0.00772700     0.20700
C597        C  0.05371434  0.98691205  0.43905807    -0.54200
C598        C  0.03899953  0.98376154  0.97904778     0.09800
C599        C  0.10940188  0.98631606  0.97538825    -0.53700
C600        C  0.09178836  0.97801332  0.01376233     0.10400
H601        H  0.04794400  0.90839950  0.41441460     0.14900
H602        H  0.02994484  0.94758115  0.03693910     0.00700
H603        H  0.05134381  0.50529389  0.41479936     0.15200
H604        H  0.14116411  0.50297263  0.97359775     0.15000
C605        C  0.05435376  0.58735379  0.47351872     0.86800
C606        C  0.06279793  0.55454990  0.47125514    -0.53400
C607        C  0.04037727  0.52159842  0.99419619     0.09700
C608        C  0.01534275  0.52944252  0.02660528     0.20700
C609        C  0.51016923  0.56948954  0.47169008    -0.54200
C610        C  0.48856834  0.53856853  0.99774269     0.09800
C611        C  0.06581674  0.60005643  0.01971291    -0.53700
C612        C  0.04506119  0.57097242  0.04853112     0.10400
H613        H  0.08597027  0.55807635  0.45101806     0.14900
H614        H  0.49965566  0.00453615  0.04890606     0.00700
H615        H  0.49761852  0.58323468  0.45153787     0.15200
H616        H  0.08387076  0.63029744  0.03006515     0.15000
C617        C  0.37937210  0.00131123  0.46147642     0.86800
C618        C  0.42426255  0.52508674  0.46209603    -0.53400
C619        C  0.44376119  0.01867391  0.99610673     0.09700
C620        C  0.41454565  0.98839820  0.02813205     0.20700
C621        C  0.37061721  0.95889902  0.46508952    -0.54200
C622        C  0.38690215  0.95085016  0.00001703     0.09800
C623        C  0.36797569  0.00881424  0.50521370    -0.53700
C624        C  0.38784450  0.00520215  0.04002604     0.10400
H625        H  0.43853537  0.54361592  0.43535370     0.14900
H626        H  0.42933151  0.98280606  0.05596850     0.00700
H627        H  0.35162383  0.93616332  0.44258826     0.15200
H628        H  0.34376999  0.51365445  0.00967860     0.15000
C629        C  0.31534623  0.85556075  0.05414798     0.86800
C630        C  0.33958988  0.83463638  0.05037347    -0.53400
C631        C  0.36029499  0.84299045  0.51396324     0.09700
C632        C  0.35518166  0.87278960  0.48512049     0.20700
C633        C  0.34463040  0.89919151  0.04921040    -0.54200
C634        C  0.36673243  0.90906725  0.51438877     0.09800
C635        C  0.28974154  0.84318234  0.01253287    -0.53700
C636        C  0.30989572  0.85314141  0.47647697     0.10400
H637        H  0.33611220  0.81114403  0.07141273     0.14900
H638        H  0.37180526  0.88023365  0.45558280     0.00700
H639        H  0.34227295  0.92092616  0.06730973     0.15200
H640        H  0.25773362  0.82629312  0.51130862     0.15000
Fe641      Fe  0.16601854  0.73011355  0.25329867     1.65800
Fe642      Fe  0.07573784  0.72281750  0.25702084     1.73200
Fe643      Fe  0.15897815  0.81310713  0.25928438     1.54400
O644        O  0.19916314  0.81771524  0.30573893    -0.81400
O645        O  0.06584669  0.75747326  0.21324764    -0.79700
O646        O  0.21076167  0.76928996  0.29556595    -0.83900
O647        O  0.19565631  0.76344021  0.20241854    -0.78700
O648        O  0.12605491  0.81268731  0.30891924    -0.80500
O649        O  0.07061768  0.68689263  0.20778480    -0.83200
C650        C  0.20712516  0.79888814  0.19259646     0.97500
C651        C  0.21771286  0.80009885  0.31540779     1.05000
O652        O  0.13356973  0.75540089  0.25578174    -1.12200
O653        O  0.07895128  0.68572893  0.30171649    -0.74700
O654        O  0.14058061  0.69683235  0.30570634    -0.78100
O655        O  0.19635576  0.82021342  0.21115471    -0.78800
C656        C  0.10631894  0.68177290  0.31959741     0.96400
O657        O  0.12628957  0.68545353  0.21059585    -0.76800
O658        O  0.07291700  0.75288445  0.30740669    -0.82000
C659        C  0.08520698  0.79276238  0.20033301     0.99100
C660        C  0.09402198  0.78659067  0.32404560     1.05000
O661        O  0.12039038  0.81576636  0.21413973    -0.77600
C662        C  0.09137550  0.67315906  0.19525970     1.03300
Fe663      Fe  0.33084085  0.60745261  0.24697536     1.65800
Fe664      Fe  0.24800062  0.51613175  0.23307181     1.73200
Fe665      Fe  0.23983437  0.59926145  0.23578271     1.54400
O666        O  0.26928903  0.63695051  0.28655267    -0.81400
O667        O  0.20964906  0.51180955  0.18212015    -0.79700
O668        O  0.32916365  0.64447861  0.29247642    -0.83900
O669        O  0.33413469  0.64442700  0.19836481    -0.78700
O670        O  0.20005677  0.55962703  0.27869037    -0.80500
O671        O  0.28757358  0.51923423  0.18847170    -0.83200
C672        C  0.31087586  0.65448673  0.18088027     0.97500
C673        C  0.30356545  0.65253756  0.30412549     1.05000
O674        O  0.27282766  0.57421618  0.23864864    -1.12200
O675        O  0.28277242  0.51231105  0.28327067    -0.74700
O676        O  0.33307762  0.57332410  0.29586959    -0.78100
O677        O  0.27577651  0.64131834  0.19224846    -0.78800
C678        C  0.31359734  0.53702464  0.30472937     0.96400
O679        O  0.34232638  0.57624361  0.20295109    -0.76800
O680        O  0.20584444  0.50612389  0.27747283    -0.82000
C681        C  0.19618165  0.53324461  0.16753904     0.99100
C682        C  0.19042967  0.52522007  0.29165400     1.05000
O683        O  0.20531622  0.56589856  0.18443667    -0.77600
C684        C  0.32367363  0.54398471  0.18226293     1.03300
C685        C  0.29033136  0.84716518  0.09352887    -0.05000
C686        C  0.25581725  0.85038719  0.09149482    -0.02100
C687        C  0.22752938  0.83248785  0.12251414     0.02900
C688        C  0.23601982  0.81678733  0.15913707    -0.05000
C689        C  0.27380171  0.82127474  0.16558312    -0.02100
C690        C  0.30124500  0.83745763  0.13334755     0.02800
C691        C  0.25053068  0.87469723  0.05983846     0.37500
C692        C  0.28504148  0.81088317  0.20619601     0.37500
C693        C  0.34211980  0.85052437  0.14414613     0.35900
C694        C  0.18892210  0.82830004  0.11540886     0.35900
N695        N  0.37486360  0.86271807  0.15445306    -0.38900
N696        N  0.15787389  0.82417160  0.10894678    -0.38900
N697        N  0.29396303  0.80279716  0.23869779    -0.38400
N698        N  0.24620074  0.89434627  0.53506855    -0.38400
C699        C  0.24642173  0.81515883  0.35333076    -0.05000
C700        C  0.26149205  0.85431777  0.36847297    -0.02100
C701        C  0.27928115  0.86562679  0.40973438     0.02900
C702        C  0.28820441  0.84055158  0.43393379    -0.05000
C703        C  0.27059825  0.80096728  0.42073554    -0.02100
C704        C  0.25245786  0.78885414  0.37966046     0.02800
C705        C  0.25793710  0.88328895  0.34253009     0.37500
C706        C  0.26466129  0.77180280  0.45261154     0.37500
C707        C  0.23804956  0.74852799  0.36638898     0.35900
C708        C  0.27999575  0.89876649  0.43007278     0.35900
N709        N  0.22675685  0.71632881  0.35610506    -0.38900
N710        N  0.27927997  0.92476567  0.44579184    -0.38900
N711        N  0.25959327  0.75024214  0.48014531    -0.38400
N712        N  0.25505686  0.90648168  0.32216016    -0.38400
C713        C  0.32668197  0.52434691  0.34392762    -0.05000
C714        C  0.32515174  0.53978009  0.38319442    -0.02100
C715        C  0.34330883  0.53447555  0.42047175     0.02900
C716        C  0.36066558  0.51000755  0.42028712    -0.05000
C717        C  0.36335537  0.99601337  0.37975598    -0.02100
C718        C  0.34572990  0.50235969  0.34212384     0.02800
C719        C  0.30522660  0.56234740  0.38501269     0.37500
C720        C  0.38631131  0.97691079  0.37507873     0.37500
C721        C  0.34908396  0.48792097  0.30132733     0.35900
C722        C  0.34682450  0.55862043  0.45648437     0.35900
N723        N  0.35227120  0.47626193  0.26910686    -0.38900
N724        N  0.34800901  0.57866592  0.98370678    -0.38900
N725        N  0.40454261  0.96165846  0.37102544    -0.38400
N726        N  0.28920038  0.58006490  0.38655818    -0.38400
C727        C  0.38253481  0.51891107  0.08282285    -0.05000
C728        C  0.38689861  0.55673020  0.08723490    -0.02100
C729        C  0.37156949  0.56595478  0.12227241     0.02900
C730        C  0.34538312  0.53570774  0.14926546    -0.05000
C731        C  0.34290795  0.99853766  0.14631031    -0.02100
C732        C  0.36579475  0.99257652  0.11698680     0.02800
C733        C  0.40734549  0.58677483  0.05596710     0.37500
C734        C  0.31732288  0.96637341  0.17320955     0.37500
C735        C  0.37886057  0.96513985  0.12731718     0.35900
C736        C  0.38345483  0.60675876  0.13018872     0.35900
N737        N  0.39063167  0.94434719  0.13667669    -0.38900
N738        N  0.39423345  0.63958310  0.13672999    -0.38900
N739        N  0.29619267  0.94015025  0.19374335    -0.38400
N740        N  0.42245941  0.61137309  0.53126666    -0.38400
C741        C  0.07358484  0.64177602  0.16094035    -0.05000
C742        C  0.04853826  0.64335752  0.12803426    -0.02100
C743        C  0.03345561  0.61546057  0.09440624     0.02900
C744        C  0.04375881  0.58582284  0.09205625    -0.05000
C745        C  0.06505428  0.58164340  0.12703413    -0.02100
C746        C  0.08041446  0.60968807  0.16098538     0.02800
C747        C  0.04108133  0.67592146  0.12603074     0.37500
C748        C  0.07175255  0.54883313  0.12762037     0.37500
C749        C  0.10394753  0.60596507  0.19554653     0.35900
C750        C  0.51336932  0.62090318  0.05794642     0.35900
N751        N  0.12319148  0.60386460  0.22325458    -0.38900
N752        N  0.49927496  0.62745639  0.02824448    -0.38900
N753        N  0.07635974  0.52211025  0.12883823    -0.38400
N754        N  0.03518044  0.70185627  0.12402890    -0.38400
C755        C  0.09719041  0.65798985  0.35836957    -0.05000
C756        C  0.06860171  0.61813139  0.35561431    -0.02100
C757        C  0.05517840  0.59621822  0.39282693     0.02900
C758        C  0.07178796  0.61355483  0.43413976    -0.05000
C759        C  0.10414167  0.65275716  0.43573147    -0.02100
C760        C  0.11508200  0.67530368  0.39824284     0.02800
C761        C  0.05288127  0.59960772  0.31402967     0.37500
C762        C  0.12868677  0.66984215  0.47407237     0.37500
C763        C  0.14361165  0.71694732  0.40119016     0.35900
C764        C  0.52353688  0.55492616  0.38760775     0.35900
N765        N  0.16598148  0.75023426  0.40453248    -0.38900
N766        N  0.49733655  0.52306713  0.38345131    -0.38900
N767        N  0.14958305  0.68444494  0.50373352    -0.38400
N768        N  0.54140101  0.58366255  0.28073613    -0.38400
C769        C  0.16816429  0.51981783  0.12929782    -0.05000
C770        C  0.17441227  0.54534953  0.09470302    -0.02100
C771        C  0.14841404  0.53243419  0.05822106     0.02900
C772        C  0.11537887  0.99367717  0.05569922    -0.05000
C773        C  0.10611707  0.97059664  0.09313192    -0.02100
C774        C  0.13303652  0.98300882  0.12903070     0.02800
C775        C  0.20700304  0.58560464  0.09676472     0.37500
C776        C  0.06772994  0.93597404  0.09722384     0.37500
C777        C  0.12283595  0.95928462  0.16717417     0.35900
C778        C  0.15450044  0.56052569  0.02477980     0.35900
N779        N  0.11446885  0.94063019  0.19775951    -0.38900
N780        N  0.15969840  0.58318904  0.49834849    -0.38900
N781        N  0.03696039  0.90903051  0.10269371    -0.38400
N782        N  0.23211981  0.61812595  0.09804967    -0.38400
C783        C  0.10573697  0.97960567  0.39318690    -0.05000
C784        C  0.09658249  0.99214140  0.35374040    -0.02100
C785        C  0.12376690  0.50627655  0.32058558     0.02900
C786        C  0.15997466  0.50681406  0.32512785    -0.05000
C787        C  0.16588932  0.48802120  0.36092765    -0.02100
C788        C  0.13831968  0.47305861  0.39347956     0.02800
C789        C  0.05702160  0.98437078  0.34356778     0.37500
C790        C  0.20046808  0.48385769  0.36472281     0.37500
C791        C  0.14321758  0.44952326  0.42651892     0.35900
C792        C  0.11286357  0.51677534  0.27993107     0.35900
N793        N  0.14748987  0.43091808  0.95269911    -0.38900
N794        N  0.10406062  0.02443072  0.24725681    -0.38900
N795        N  0.22761160  0.47982846  0.36808186    -0.38400
N796        N  0.02536822  0.97757263  0.33428660    -0.38400
C797        C  0.04424606  0.80328676  0.43599567    -0.05000
C798        C  0.08305328  0.80883693  0.43841258    -0.02100
C799        C  0.10068238  0.80647399  0.40116520     0.02900
C800        C  0.07889126  0.79525313  0.36193385    -0.05000
C801        C  0.04134923  0.79106705  0.35876090    -0.02100
C802        C  0.02635022  0.79932011  0.39412777     0.02800
C803        C  0.10695392  0.82068218  0.47782125     0.37500
C804        C  0.01941709  0.78171653  0.31786653     0.37500
C805        C  0.49697842  0.80994423  0.38455219     0.35900
C806        C  0.14197744  0.81784830  0.40286760     0.35900
N807        N  0.47453250  0.82006231  0.37650351    -0.38900
N808        N  0.17527716  0.82833277  0.40456315    -0.38900
N809        N  0.00181408  0.77418410  0.28547489    -0.38400
N810        N  0.12678412  0.83016024  0.00877817    -0.38400
C811        C  0.06650724  0.80730216  0.16685808    -0.05000
C812        C  0.08970453  0.84299213  0.14461854    -0.02100
C813        C  0.07444056  0.85129070  0.10683189     0.02900
C814        C  0.03448923  0.82698801  0.09311046    -0.05000
C815        C  0.01012523  0.79423837  0.11784656    -0.02100
C816        C  0.02565142  0.78449024  0.15449773     0.02800
C817        C  0.12989072  0.87115507  0.15900410     0.37500
C818        C  0.47033341  0.76544849  0.10085036     0.37500
C819        C  0.99904440  0.75015542  0.17842256     0.35900
C820        C  0.10137917  0.88196403  0.07899892     0.35900
N821        N  0.47716179  0.72099557  0.19624620    -0.38900
N822        N  0.12297278  0.90591703  0.55650901    -0.38900
N823        N  0.43920244  0.74289452  0.08724192    -0.38400
N824        N  0.16190872  0.89394722  0.17019234    -0.38400
C825        C  0.31369532  0.68120743  0.33993866    -0.05000
C826        C  0.34677194  0.71957528  0.33879598    -0.02100
C827        C  0.35495001  0.74677164  0.37213059     0.02900
C828        C  0.33568454  0.73402067  0.41109919    -0.05000
C829        C  0.29929497  0.69717339  0.40961490    -0.02100
C830        C  0.28843011  0.67141419  0.37407135     0.02800
C831        C  0.37279599  0.73124272  0.30363799     0.37500
C832        C  0.27064636  0.68568408  0.44207121     0.37500
C833        C  0.25137674  0.63412904  0.37331098     0.35900
C834        C  0.38146064  0.78834823  0.36535694     0.35900
N835        N  0.22173597  0.60462415  0.37280133    -0.38900
N836        N  0.40164409  0.82168516  0.35977284    -0.38900
N837        N  0.24687309  0.67420310  0.96725902    -0.38400
N838        N  0.39416380  0.74043623  0.27612956    -0.38400
C839        C  0.32522038  0.68079990  0.14356871    -0.05000
C840        C  0.34098983  0.72172583  0.14762709    -0.02100
C841        C  0.35913307  0.74685531  0.11290113     0.02900
C842        C  0.35786850  0.73092198  0.07236186    -0.05000
C843        C  0.34657219  0.69035933  0.07053289    -0.02100
C844        C  0.32864426  0.66536266  0.10499255     0.02800
C845        C  0.33845056  0.73810061  0.18749915     0.37500
C846        C  0.35708730  0.67484064  0.03502733     0.37500
C847        C  0.31245481  0.62323502  0.10017489     0.35900
C848        C  0.38534688  0.78815825  0.12162384     0.35900
N849        N  0.29900320  0.58962259  0.09616119    -0.38900
N850        N  0.40865210  0.82051205  0.12981634    -0.38900
N851        N  0.36549385  0.66258546  0.50668377    -0.38400
N852        N  0.33587973  0.75136923  0.21892738    -0.38400
C853        C  0.35714286  0.75798304  0.95306302     0.86800
C854        C  0.35430172  0.79463436  0.96018272    -0.53400
C855        C  0.37211131  0.81488740  0.49727794     0.09700
C856        C  0.39563289  0.79811049  0.52276952     0.20700
C857        C  0.40164059  0.77380845  0.95471918    -0.54200
C858        C  0.42278058  0.79530014  0.49038982     0.09800
C859        C  0.34437035  0.73484055  0.99459673    -0.53700
C860        C  0.36482556  0.75414388  0.53123934     0.10400
H861        H  0.33829558  0.80312353  0.93794418     0.14900
H862        H  0.41281195  0.81613662  0.55069745     0.00700
H863        H  0.41495663  0.76805312  0.92862834     0.15200
H864        H  0.32249458  0.70420645  0.49529633     0.15000
C865        C  0.02783584  0.81528929  0.97307715     0.86800
C866        C  0.48293456  0.79434495  0.97112314    -0.53400
C867        C  0.46682773  0.81049203  0.49566081     0.09700
C868        C  0.99890823  0.84551822  0.52468163     0.20700
C869        C  0.04374825  0.85878807  0.96884125    -0.54200
C870        C  0.02785533  0.87584483  0.49238998     0.09800
C871        C  0.03676745  0.81088654  0.01941915    -0.53700
C872        C  0.02319301  0.82738265  0.54712461     0.10400
H873        H  0.46558071  0.76752242  0.95258518     0.14900
H874        H  0.48691257  0.85747252  0.54626160     0.00700
H875        H  0.06786549  0.87501069  0.94794823     0.15200
H876        H  0.05188834  0.79557600  0.53037155     0.15000
C877        C  0.08159086  0.97130516  0.93449577     0.86800
C878        C  0.05336790  0.92870086  0.94032839    -0.53400
C879        C  0.03740756  0.91752567  0.47956672     0.09700
C880        C  0.04668938  0.95490123  0.50773067     0.20700
C881        C  0.05369193  0.98688373  0.93905012    -0.54200
C882        C  0.03901641  0.98378648  0.47905315     0.09800
C883        C  0.10940888  0.98631767  0.47539571    -0.53700
C884        C  0.09179398  0.97801778  0.51376931     0.10400
H885        H  0.04795264  0.90838616  0.91441604     0.14900
H886        H  0.02994883  0.94759893  0.53694140     0.00700
H887        H  0.05135822  0.50530980  0.91479631     0.15200
H888        H  0.14115827  0.50296950  0.47359470     0.15000
C889        C  0.05434269  0.58735904  0.97351813     0.86800
C890        C  0.06279341  0.55455918  0.97125220    -0.53400
C891        C  0.04037830  0.52159170  0.49420053     0.09700
C892        C  0.01534835  0.52944312  0.52660926     0.20700
C893        C  0.51018823  0.56949151  0.97169812    -0.54200
C894        C  0.48855393  0.53856817  0.49773914     0.09800
C895        C  0.06583123  0.60005396  0.51971202    -0.53700
C896        C  0.04507205  0.57097365  0.54853243     0.10400
H897        H  0.08596884  0.55809141  0.95101708     0.14900
H898        H  0.49964630  0.00452663  0.54890543     0.00700
H899        H  0.49764129  0.58324355  0.95155075     0.15200
H900        H  0.08389059  0.63029590  0.53006104     0.15000
C901        C  0.37936746  0.00129943  0.96148788     0.86800
C902        C  0.42429072  0.52508799  0.96207259    -0.53400
C903        C  0.44376041  0.01867518  0.49610062     0.09700
C904        C  0.41454055  0.98840631  0.52812709     0.20700
C905        C  0.37062350  0.95889031  0.96509325    -0.54200
C906        C  0.38689366  0.95085857  0.50001428     0.09800
C907        C  0.36796717  0.00879032  0.00522752    -0.53700
C908        C  0.38784647  0.00522050  0.54001613     0.10400
H909        H  0.43857243  0.54359818  0.93531992     0.14900
H910        H  0.42932285  0.98281241  0.55596575     0.00700
H911        H  0.35163093  0.93615460  0.94258860     0.15200
H912        H  0.34369511  0.51352778  0.50972819     0.15000
C913        C  0.31534751  0.85556416  0.55413863     0.86800
C914        C  0.33959436  0.83464364  0.55036185    -0.53400
C915        C  0.36029089  0.84298042  0.01397539     0.09700
C916        C  0.35518094  0.87277982  0.98513035     0.20700
C917        C  0.34462812  0.89919653  0.54920423    -0.54200
C918        C  0.36673476  0.90905964  0.01439575     0.09800
C919        C  0.28974226  0.84318562  0.51252401    -0.53700
C920        C  0.30989562  0.85313498  0.97648661     0.10400
H921        H  0.33611921  0.81115140  0.57139992     0.14900
H922        H  0.37180429  0.88022092  0.95559284     0.00700
H923        H  0.34226724  0.92092340  0.56729996     0.15200
H924        H  0.25773277  0.82629266  0.01131655     0.15000
Fe925      Fe  0.16602980  0.73012350  0.75330080     1.65800
Fe926      Fe  0.07574987  0.72283129  0.75701291     1.73200
Fe927      Fe  0.15899200  0.81312010  0.75928607     1.54400
O928        O  0.19918120  0.81772799  0.80573613    -0.81400
O929        O  0.06586368  0.75748431  0.71323229    -0.79700
O930        O  0.21076782  0.76929360  0.79557391    -0.83900
O931        O  0.19567509  0.76345530  0.70242618    -0.78700
O932        O  0.12607233  0.81269831  0.80892537    -0.80500
O933        O  0.07063161  0.68690010  0.70778332    -0.83200
C934        C  0.20713880  0.79890124  0.69259880     0.97500
C935        C  0.21772431  0.80010607  0.81541097     1.05000
O936        O  0.13358234  0.75541329  0.75578023    -1.12200
O937        O  0.07896006  0.68574864  0.80171842    -0.74700
O938        O  0.14058438  0.69683790  0.80570539    -0.78100
O939        O  0.19636494  0.82022522  0.71115210    -0.78800
C940        C  0.10632415  0.68178676  0.81959915     0.96400
O941        O  0.12630686  0.68546783  0.71059124    -0.76800
O942        O  0.07292361  0.75290285  0.80739021    -0.82000
C943        C  0.08522072  0.79277821  0.70033128     0.99100
C944        C  0.09403156  0.78660409  0.82403941     1.05000
O945        O  0.12040078  0.81578385  0.71414761    -0.77600
C946        C  0.09139215  0.67317032  0.69525619     1.03300
Fe947      Fe  0.33084631  0.60745755  0.74696062     1.65800
Fe948      Fe  0.24799721  0.51614275  0.73306197     1.73200
Fe949      Fe  0.23984560  0.59928222  0.73576982     1.54400
O950        O  0.26930397  0.63696648  0.78654262    -0.81400
O951        O  0.20965156  0.51183006  0.68210937    -0.79700
O952        O  0.32917293  0.64447950  0.79247206    -0.83900
O953        O  0.33414765  0.64444238  0.69835781    -0.78700
O954        O  0.20006057  0.55965188  0.77867509    -0.80500
O955        O  0.28756945  0.51923658  0.68846470    -0.83200
C956        C  0.31089164  0.65450543  0.68087282     0.97500
C957        C  0.30357796  0.65254386  0.80412058     1.05000
O958        O  0.27283223  0.57422834  0.73863622    -1.12200
O959        O  0.28276204  0.51230975  0.78326187    -0.74700
O960        O  0.33307976  0.57331828  0.79584499    -0.78100
O961        O  0.27579188  0.64133774  0.69223803    -0.78800
C962        C  0.31359429  0.53702042  0.80471252     0.96400
O963        O  0.34232430  0.57624942  0.70292723    -0.76800
O964        O  0.20584229  0.50614502  0.77746221    -0.82000
C965        C  0.19618821  0.53326795  0.66752633     0.99100
C966        C  0.19043062  0.52524520  0.79164144     1.05000
O967        O  0.20532668  0.56592401  0.68442148    -0.77600
C968        C  0.32366872  0.54398542  0.68224840     1.03300
C969        C  0.29033419  0.84716742  0.59352064    -0.05000
C970        C  0.25582158  0.85039218  0.59149016    -0.02100
C971        C  0.22753851  0.83249953  0.62251521     0.02900
C972        C  0.23603109  0.81679915  0.65913698    -0.05000
C973        C  0.27381234  0.82128405  0.66557832    -0.02100
C974        C  0.30125197  0.83746334  0.63333906     0.02800
C975        C  0.25053092  0.87469696  0.55982990     0.37500
C976        C  0.28505609  0.81089530  0.70619062     0.37500
C977        C  0.34212761  0.85052984  0.64413293     0.35900
C978        C  0.18893430  0.82832088  0.61541855     0.35900
N979        N  0.37487235  0.86272327  0.65443525    -0.38900
N980        N  0.15788889  0.82420134  0.60896401    -0.38900
N981        N  0.29398122  0.80281181  0.73869184    -0.38400
N982        N  0.24620405  0.89435161  0.03508117    -0.38400
C983        C  0.24643028  0.81516252  0.85333641    -0.05000
C984        C  0.26150075  0.85432051  0.86848169    -0.02100
C985        C  0.27928551  0.86562542  0.90974507     0.02900
C986        C  0.28820556  0.84054759  0.93394325    -0.05000
C987        C  0.27060006  0.80096443  0.92074189    -0.02100
C988        C  0.25246346  0.78885505  0.87966494     0.02800
C989        C  0.25795356  0.88329598  0.84253876     0.37500
C990        C  0.26466068  0.77179725  0.95261546     0.37500
C991        C  0.23805916  0.74853077  0.86638901     0.35900
C992        C  0.27999976  0.89876398  0.93008584     0.35900
N993        N  0.22677093  0.71633344  0.85610119    -0.38900
N994        N  0.27928371  0.92476198  0.94580746    -0.38900
N995        N  0.25959090  0.75023364  0.98014659    -0.38400
N996        N  0.25508091  0.90649287  0.82216855    -0.38400
C997        C  0.32668416  0.52434758  0.84391274    -0.05000
C998        C  0.32524382  0.53985966  0.88316643    -0.02100
C999        C  0.34343166  0.53457627  0.92042869     0.02900
C1000       C  0.36070613  0.51003817  0.92026005    -0.05000
C1001       C  0.36337490  0.99602998  0.87976613    -0.02100
C1002       C  0.34566617  0.50229563  0.84211690     0.02800
C1003       C  0.30537756  0.56248266  0.88498817     0.37500
C1004       C  0.38633934  0.97693631  0.87508986     0.37500
C1005       C  0.34891999  0.48775842  0.80133749     0.35900
C1006       C  0.34708645  0.55882297  0.95639830     0.35900
N1007       N  0.35202704  0.47601143  0.76913554    -0.38900
N1008       N  0.34763505  0.57837522  0.48382840    -0.38900
N1009       N  0.40457682  0.96169036  0.87103799    -0.38400
N1010       N  0.28939751  0.58024431  0.88653825    -0.38400
C1011       C  0.38252650  0.51887941  0.58283250    -0.05000
C1012       C  0.38687489  0.55669530  0.58721477    -0.02100
C1013       C  0.37155613  0.56593490  0.62224986     0.02900
C1014       C  0.34537518  0.53569799  0.64925652    -0.05000
C1015       C  0.34291829  0.99855022  0.64631322    -0.02100
C1016       C  0.36579817  0.99258905  0.61697966     0.02800
C1017       C  0.40726173  0.58670722  0.55589441     0.37500
C1018       C  0.31734858  0.96639023  0.67322620     0.37500
C1019       C  0.37886469  0.96515139  0.62730105     0.35900
C1020       C  0.38343929  0.60674121  0.63014251     0.35900
N1021       N  0.39063598  0.94435756  0.63665414    -0.38900
N1022       N  0.39421815  0.63956846  0.63666451    -0.38900
N1023       N  0.29623268  0.94017195  0.69377456    -0.38400
N1024       N  0.42260289  0.61148458  0.03139963    -0.38400
C1025       C  0.07360372  0.64178828  0.66093556    -0.05000
C1026       C  0.04856028  0.64337214  0.62802734    -0.02100
C1027       C  0.03347665  0.61547460  0.59439967     0.02900
C1028       C  0.04377184  0.58583046  0.59205497    -0.05000
C1029       C  0.06506447  0.58164973  0.62703473    -0.02100
C1030       C  0.08043193  0.60969928  0.66098142     0.02800
C1031       C  0.04111025  0.67594062  0.62602039     0.37500
C1032       C  0.07175035  0.54883136  0.62762814     0.37500
C1033       C  0.10397546  0.60598269  0.69553529     0.35900
C1034       C  0.51331907  0.62088319  0.55797143     0.35900
N1035       N  0.12323011  0.60388798  0.72323512    -0.38900
N1036       N  0.49918998  0.62741794  0.52828696    -0.38900
N1037       N  0.07634555  0.52210106  0.62885151    -0.38400
N1038       N  0.03521551  0.70187941  0.62401604    -0.38400
C1039       C  0.09719096  0.65800383  0.85837246    -0.05000
C1040       C  0.06860092  0.61814597  0.85561534    -0.02100
C1041       C  0.05517385  0.59623100  0.89282662     0.02900
C1042       C  0.07177766  0.61356573  0.93414156    -0.05000
C1043       C  0.10412876  0.65277048  0.93573681    -0.02100
C1044       C  0.11507665  0.67531715  0.89824773     0.02800
C1045       C  0.05288385  0.59962468  0.81402903     0.37500
C1046       C  0.12866303  0.66985987  0.97408333     0.37500
C1047       C  0.14361059  0.71696002  0.90119535     0.35900
C1048       C  0.52353703  0.55491857  0.88761290     0.35900
N1049       N  0.16598459  0.75024609  0.90453739    -0.38900
N1050       N  0.49732755  0.52306390  0.88345853    -0.38900
N1051       N  0.14955098  0.68446775  0.00374893    -0.38400
N1052       N  0.54142791  0.58363987  0.78074038    -0.38400
C1053       C  0.16816683  0.51983790  0.62928908    -0.05000
C1054       C  0.17440827  0.54536533  0.59469155    -0.02100
C1055       C  0.14840548  0.53244329  0.55821337     0.02900
C1056       C  0.11538368  0.99367750  0.55570840    -0.05000
C1057       C  0.10611372  0.97059860  0.59314316    -0.02100
C1058       C  0.13303071  0.98300691  0.62904478     0.02800
C1059       C  0.20699917  0.58562071  0.59674407     0.37500
C1060       C  0.06772181  0.93598201  0.59723334     0.37500
C1061       C  0.12282127  0.95928612  0.66719085     0.35900
C1062       C  0.15448162  0.56053022  0.52477010     0.35900
N1063       N  0.11444630  0.94063463  0.69777831    -0.38900
N1064       N  0.15972512  0.58318726  0.99835896    -0.38900
N1065       N  0.03694860  0.90904347  0.60270173    -0.38400
N1066       N  0.23211709  0.61814171  0.59802022    -0.38400
C1067       C  0.10573132  0.97959349  0.89318466    -0.05000
C1068       C  0.09658407  0.99213594  0.85373891    -0.02100
C1069       C  0.12376295  0.50628761  0.82057753     0.02900
C1070       C  0.15998092  0.50684493  0.82512150    -0.05000
C1071       C  0.16591388  0.48807527  0.86093170    -0.02100
C1072       C  0.13833977  0.47309445  0.89347789     0.02800
C1073       C  0.05702643  0.98437179  0.84356012     0.37500
C1074       C  0.20052420  0.48396676  0.86475084     0.37500
C1075       C  0.14324165  0.44955484  0.92650873     0.35900
C1076       C  0.11285243  0.51678226  0.77992475     0.35900
N1077       N  0.14746565  0.43089211  0.45271650    -0.38900
N1078       N  0.10407957  0.02443330  0.74725710    -0.38900
N1079       N  0.22769698  0.47998707  0.86813255    -0.38400
N1080       N  0.02537606  0.97757931  0.83427229    -0.38400
C1081       C  0.04423310  0.80326868  0.93598901    -0.05000
C1082       C  0.08304371  0.80882673  0.93840801    -0.02100
C1083       C  0.10068081  0.80647672  0.90116113     0.02900
C1084       C  0.07889540  0.79526159  0.86192651    -0.05000
C1085       C  0.04135134  0.79107069  0.85875032    -0.02100
C1086       C  0.02634182  0.79930787  0.89411933     0.02800
C1087       C  0.10694001  0.82066879  0.97781963     0.37500
C1088       C  0.01942931  0.78173522  0.81785031     0.37500
C1089       C  0.49696214  0.80992104  0.88455563     0.35900
C1090       C  0.14197847  0.81786008  0.90286741     0.35900
N1091       N  0.47451525  0.82003681  0.87650174    -0.38900
N1092       N  0.17527984  0.82835155  0.90456523    -0.38900
N1093       N  0.00183486  0.77421632  0.78545402    -0.38400
N1094       N  0.12680124  0.83017537  0.50877752    -0.38400
C1095       C  0.06652029  0.80732170  0.66686164    -0.05000
C1096       C  0.08971585  0.84301532  0.64462806    -0.02100
C1097       C  0.07445289  0.85131504  0.60684133     0.02900
C1098       C  0.03450251  0.82701078  0.59311665    -0.05000
C1099       C  0.01013861  0.79425895  0.61785032    -0.02100
C1100       C  0.02566475  0.78450976  0.65450074     0.02800
C1101       C  0.12989832  0.87118177  0.65902156     0.37500
C1102       C  0.47032502  0.76542985  0.60084340     0.37500
C1103       C  0.99905771  0.75017582  0.67842664     0.35900
C1104       C  0.10139250  0.88198957  0.57901034     0.35900
N1105       N  0.47715295  0.72096654  0.69622769    -0.38900
N1106       N  0.12295864  0.90589131  0.05649686    -0.38900
N1107       N  0.43919553  0.74287479  0.58723276    -0.38400
N1108       N  0.16191279  0.89397743  0.67021739    -0.38400
C1109       C  0.31370746  0.68120831  0.83993971    -0.05000
C1110       C  0.34678051  0.71957848  0.83879979    -0.02100
C1111       C  0.35495505  0.74677139  0.87213749     0.02900
C1112       C  0.33568835  0.73401592  0.91110505    -0.05000
C1113       C  0.29930133  0.69716648  0.90961730    -0.02100
C1114       C  0.28844175  0.67140894  0.87407295     0.02800
C1115       C  0.37280416  0.73125169  0.80364111     0.37500
C1116       C  0.27064827  0.68567540  0.94206889     0.37500
C1117       C  0.25139391  0.63411841  0.87331302     0.35900
C1118       C  0.38146071  0.78834943  0.86536697     0.35900
N1119       N  0.22175887  0.60460785  0.87280542    -0.38900
N1120       N  0.40163972  0.82168743  0.85978504    -0.38900
N1121       N  0.24687459  0.67421208  0.46726520    -0.38400
N1122       N  0.39417173  0.74044957  0.77613201    -0.38400
C1123       C  0.32523806  0.68081906  0.64356201    -0.05000
C1124       C  0.34101436  0.72174610  0.64762111    -0.02100
C1125       C  0.35915427  0.74687365  0.61289299     0.02900
C1126       C  0.35788132  0.73093746  0.57235268    -0.05000
C1127       C  0.34658214  0.69037405  0.57052343    -0.02100
C1128       C  0.32865299  0.66537889  0.60498337     0.02800
C1129       C  0.33848186  0.73812403  0.68749412     0.37500
C1130       C  0.35709768  0.67485249  0.53501969     0.37500
C1131       C  0.31245223  0.62324985  0.60016255     0.35900
C1132       C  0.38537194  0.78817673  0.62161313     0.35900
N1133       N  0.29899215  0.58963663  0.59614479    -0.38900
N1134       N  0.40867952  0.82053040  0.62980343    -0.38900
N1135       N  0.36548328  0.66258063  0.00668531    -0.38400
N1136       N  0.33591642  0.75139685  0.71892203    -0.38400
C1137       C  0.85711926  0.25762858  0.45280717     0.86800
C1138       C  0.85380169  0.29399026  0.46004568    -0.53400
C1139       C  0.87148696  0.31425160  0.99717846     0.09700
C1140       C  0.89522103  0.29774465  0.02268161     0.20700
C1141       C  0.90171076  0.27393975  0.45451606    -0.54200
C1142       C  0.92263938  0.29540314  0.99034429     0.09800
C1143       C  0.84452931  0.23431928  0.49424142    -0.53700
C1144       C  0.86469121  0.25365048  0.03097041     0.10400
H1145       H  0.83774701  0.30237448  0.43776184     0.14900
H1146       H  0.91222028  0.31573078  0.05071168     0.00700
H1147       H  0.91523500  0.26848295  0.42841141     0.15200
H1148       H  0.82303005  0.20352702  0.99480417     0.15000
C1149       C  0.52771127  0.31453906  0.47269323     0.86800
C1150       C  0.98300797  0.29484167  0.47145313    -0.53400
C1151       C  0.96672788  0.31089364  0.99584723     0.09700
C1152       C  0.49910821  0.34494287  0.02446727     0.20700
C1153       C  0.54382491  0.35806379  0.46852901    -0.54200
C1154       C  0.52808543  0.37519349  0.99215248     0.09800
C1155       C  0.53663805  0.31001103  0.51899009    -0.53700
C1156       C  0.52318279  0.32652857  0.04676823     0.10400
H1157       H  0.96577884  0.26797011  0.45295247     0.14900
H1158       H  0.98653973  0.35796332  0.04636873     0.00700
H1159       H  0.56793240  0.37422247  0.44760797     0.15200
H1160       H  0.55162202  0.29451095  0.02980293     0.15000
C1161       C  0.58162676  0.47067341  0.43407204     0.86800
C1162       C  0.55360407  0.42804445  0.44001853    -0.53400
C1163       C  0.53769922  0.41685743  0.97928716     0.09700
C1164       C  0.54687472  0.45419676  0.00740126     0.20700
C1165       C  0.55352287  0.48600394  0.43868403    -0.54200
C1166       C  0.53898096  0.48291926  0.97874210     0.09800
C1167       C  0.60952326  0.48583581  0.97488755    -0.53700
C1168       C  0.59197792  0.47747082  0.01331599     0.10400
H1169       H  0.54820747  0.40772878  0.41411543     0.14900
H1170       H  0.53018507  0.44687237  0.03664769     0.00700
H1171       H  0.55093373  0.00431195  0.41450816     0.15200
H1172       H  0.64126826  0.00260677  0.97300301     0.15000
C1173       C  0.55491931  0.08673401  0.47332753     0.86800
C1174       C  0.56308431  0.05375998  0.47094123    -0.53400
C1175       C  0.54055792  0.02084676  0.99388931     0.09700
C1176       C  0.51572702  0.02885540  0.02639616     0.20700
C1177       C  0.00952880  0.06985202  0.47172937    -0.54200
C1178       C  0.98802976  0.03890985  0.99779584     0.09800
C1179       C  0.56658973  0.09934193  0.01952925    -0.53700
C1180       C  0.54568595  0.07028021  0.04831164     0.10400
H1181       H  0.58615673  0.05714368  0.45062743     0.14900
H1182       H  0.99934551  0.50511321  0.04912442     0.00700
H1183       H  0.99687764  0.08341389  0.45144619     0.15200
H1184       H  0.58486495  0.12952101  0.02997032     0.15000
C1185       C  0.87868953  0.50070626  0.46128389     0.86800
C1186       C  0.92353810  0.02510371  0.46221325    -0.53400
C1187       C  0.94322328  0.51865759  0.99599663     0.09700
C1188       C  0.91415284  0.48793624  0.02773679     0.20700
C1189       C  0.87058310  0.45848658  0.46443625    -0.54200
C1190       C  0.88690062  0.45044617  0.99935398     0.09800
C1191       C  0.86692377  0.50752519  0.50509845    -0.53700
C1192       C  0.88703440  0.50416032  0.03977654     0.10400
H1193       H  0.93770353  0.04408288  0.43573665     0.14900
H1194       H  0.92907141  0.48241417  0.05549283     0.00700
H1195       H  0.85183453  0.43583083  0.44171909     0.15200
H1196       H  0.84216900  0.01138243  0.01001401     0.15000
C1197       C  0.81499837  0.35538987  0.05363970     0.86800
C1198       C  0.83913317  0.33434626  0.05004687    -0.53400
C1199       C  0.85984876  0.34253412  0.51367419     0.09700
C1200       C  0.85486516  0.37230862  0.48467282     0.20700
C1201       C  0.84439126  0.39898223  0.04862723    -0.54200
C1202       C  0.86648732  0.40868912  0.51379621     0.09800
C1203       C  0.78941274  0.34294367  0.01200506    -0.53700
C1204       C  0.80960304  0.35272466  0.47598739     0.10400
H1205       H  0.83555700  0.31088756  0.07118992     0.14900
H1206       H  0.87150360  0.37961829  0.45515478     0.00700
H1207       H  0.84231652  0.42080577  0.06684673     0.15200
H1208       H  0.75741593  0.32605574  0.51075738     0.15000
Fe1209     Fe  0.66610448  0.22934028  0.25276876     1.65800
Fe1210     Fe  0.57566959  0.22182101  0.25679495     1.73200
Fe1211     Fe  0.65881800  0.31221199  0.25900818     1.54400
O1212       O  0.69948038  0.31704966  0.30500595    -0.81400
O1213       O  0.56563011  0.25611955  0.21265746    -0.79700
O1214       O  0.71059581  0.26822640  0.29534095    -0.83900
O1215       O  0.69592794  0.26304779  0.20216919    -0.78700
O1216       O  0.62621784  0.31164695  0.30900852    -0.80500
O1217       O  0.57050173  0.18557015  0.20790980    -0.83200
C1218       C  0.70696672  0.29835399  0.19212347     0.97500
C1219       C  0.71783556  0.29926643  0.31486227     1.05000
O1220       O  0.63352713  0.25450198  0.25546789    -1.12200
O1221       O  0.57913432  0.18513074  0.30182067    -0.74700
O1222       O  0.64053412  0.19556601  0.30485407    -0.78100
O1223       O  0.69585211  0.31946395  0.21050593    -0.78800
C1224       C  0.60646164  0.18081962  0.31918321     0.96400
O1225       O  0.62663893  0.18504747  0.20975328    -0.76800
O1226       O  0.57270961  0.25211893  0.30687157    -0.82000
C1227       C  0.58479924  0.29154302  0.20011092     0.99100
C1228       C  0.59396277  0.28567033  0.32380998     1.05000
O1229       O  0.61981329  0.31471978  0.21430128    -0.77600
C1230       C  0.59151716  0.17232068  0.19492063     1.03300
Fe1231     Fe  0.83079653  0.10702129  0.24671812     1.65800
Fe1232     Fe  0.74804448  0.01567007  0.23265237     1.73200
Fe1233     Fe  0.73973975  0.09868111  0.23547015     1.54400
O1234       O  0.76911321  0.13638778  0.28630816    -0.81400
O1235       O  0.70991769  0.01138094  0.18156116    -0.79700
O1236       O  0.82910124  0.14420951  0.29199888    -0.83900
O1237       O  0.83399553  0.14370284  0.19783240    -0.78700
O1238       O  0.69998446  0.05898800  0.27835932    -0.80500
O1239       O  0.78776085  0.01883887  0.18829805    -0.83200
C1240       C  0.81069942  0.15372160  0.18035647     0.97500
C1241       C  0.80344953  0.15213881  0.30376524     1.05000
O1242       O  0.77279383  0.07372310  0.23832998    -1.12200
O1243       O  0.78268379  0.01197679  0.28297069    -0.74700
O1244       O  0.83292290  0.07301797  0.29581928    -0.78100
O1245       O  0.77567789  0.14071503  0.19191239    -0.78800
C1246       C  0.81340711  0.03669193  0.30455094     0.96400
O1247       O  0.84249897  0.07579179  0.20297307    -0.76800
O1248       O  0.70566955  0.00544975  0.27678811    -0.82000
C1249       C  0.69635200  0.03274482  0.16705848     0.99100
C1250       C  0.69027090  0.02449742  0.29110854     1.05000
O1251       O  0.70528441  0.06529630  0.18408136    -0.77600
C1252       C  0.82389051  0.04355277  0.18227211     1.03300
C1253       C  0.79004424  0.34710501  0.09302398    -0.05000
C1254       C  0.75537012  0.35003657  0.09096768    -0.02100
C1255       C  0.72716169  0.33205620  0.12205754     0.02900
C1256       C  0.73579024  0.31638183  0.15862411    -0.05000
C1257       C  0.77365506  0.32106063  0.16500614    -0.02100
C1258       C  0.80110934  0.33757041  0.13284248     0.02800
C1259       C  0.74980320  0.37407782  0.05917446     0.37500
C1260       C  0.78494830  0.31042986  0.20543786     0.37500
C1261       C  0.84208309  0.35117831  0.14374392     0.35900
C1262       C  0.68846964  0.32768005  0.11504426     0.35900
N1263       N  0.87486253  0.36382049  0.15421470    -0.38900
N1264       N  0.65735178  0.32339734  0.10866675    -0.38900
N1265       N  0.79391783  0.30210043  0.23776198    -0.38400
N1266       N  0.74527028  0.39349364  0.53426027    -0.38400
C1267       C  0.74661423  0.31439674  0.35269454    -0.05000
C1268       C  0.76192920  0.35368218  0.36749191    -0.02100
C1269       C  0.77945409  0.36508701  0.40883240     0.02900
C1270       C  0.78798687  0.33995801  0.43344230    -0.05000
C1271       C  0.77030263  0.30030391  0.42047129    -0.02100
C1272       C  0.75239692  0.28810237  0.37932091     0.02800
C1273       C  0.75904360  0.38273177  0.34100722     0.37500
C1274       C  0.76412907  0.27119805  0.45251999     0.37500
C1275       C  0.73806961  0.24774929  0.36621344     0.35900
C1276       C  0.78014709  0.39835034  0.42881942     0.35900
N1277       N  0.72686560  0.21553581  0.35606205    -0.38900
N1278       N  0.77935113  0.42439143  0.44431463    -0.38900
N1279       N  0.75883205  0.24960425  0.48008286    -0.38400
N1280       N  0.75676553  0.40600197  0.32014700    -0.38400
C1281       C  0.82629237  0.02385615  0.34369001    -0.05000
C1282       C  0.82280512  0.03756520  0.38316223    -0.02100
C1283       C  0.84071602  0.03225507  0.42065082     0.02900
C1284       C  0.85979271  0.00932711  0.42025181    -0.05000
C1285       C  0.86397859  0.49666132  0.37948554    -0.02100
C1286       C  0.84691045  0.00344335  0.34176689     0.02800
C1287       C  0.80122418  0.05849875  0.38494434     0.37500
C1288       C  0.88779360  0.47847875  0.37489596     0.37500
C1289       C  0.85241911  0.99110694  0.30071234     0.35900
C1290       C  0.84207170  0.05489786  0.45715696     0.35900
N1291       N  0.85737791  0.98129196  0.26823564    -0.38900
N1292       N  0.84136117  0.07352885  0.98484745    -0.38900
N1293       N  0.90667048  0.46391887  0.37088379    -0.38400
N1294       N  0.78385562  0.07488415  0.38644589    -0.38400
C1295       C  0.88199558  0.01807601  0.08257175    -0.05000
C1296       C  0.88611004  0.05582212  0.08664583    -0.02100
C1297       C  0.87142832  0.06532815  0.12202592     0.02900
C1298       C  0.84561431  0.03524572  0.14939468    -0.05000
C1299       C  0.84322880  0.49809079  0.14657953    -0.02100
C1300       C  0.86583920  0.49204585  0.11698153     0.02800
C1301       C  0.90524188  0.08530891  0.05443969     0.37500
C1302       C  0.81822166  0.46617662  0.17407518     0.37500
C1303       C  0.87923181  0.46485278  0.12714068     0.35900
C1304       C  0.88370385  0.10621413  0.13000215     0.35900
N1305       N  0.89142256  0.44437338  0.13628249    -0.38900
N1306       N  0.89481978  0.13909870  0.13662986    -0.38900
N1307       N  0.79760093  0.44018742  0.19518326    -0.38400
N1308       N  0.91926718  0.10923200  0.52882341    -0.38400
C1309       C  0.57379962  0.14096942  0.16065423    -0.05000
C1310       C  0.54855532  0.14236515  0.12788222    -0.02100
C1311       C  0.53390949  0.11473833  0.09402319     0.02900
C1312       C  0.54431732  0.08516560  0.09174005    -0.05000
C1313       C  0.56568635  0.08108108  0.12669167    -0.02100
C1314       C  0.58107027  0.10918459  0.16054102     0.02800
C1315       C  0.54049953  0.17453642  0.12622989     0.37500
C1316       C  0.57258368  0.04840319  0.12727972     0.37500
C1317       C  0.60523494  0.10593943  0.19472386     0.35900
C1318       C  0.01224124  0.12121813  0.05865528     0.35900
N1319       N  0.62506521  0.10428319  0.22205694    -0.38900
N1320       N  0.99734213  0.12728112  0.02932759    -0.38900
N1321       N  0.57735476  0.02178631  0.12854577    -0.38400
N1322       N  0.53406851  0.20012494  0.12448641    -0.38400
C1323       C  0.59755568  0.15709513  0.35797106    -0.05000
C1324       C  0.56907269  0.11720832  0.35533166    -0.02100
C1325       C  0.55562251  0.09542748  0.39262030     0.02900
C1326       C  0.57230900  0.11287176  0.43389093    -0.05000
C1327       C  0.60453950  0.15215246  0.43537122    -0.02100
C1328       C  0.61539771  0.17456911  0.39779053     0.02800
C1329       C  0.55342773  0.09854860  0.31379396     0.37500
C1330       C  0.62887198  0.16960687  0.47375294     0.37500
C1331       C  0.64375965  0.21626455  0.40056040     0.35900
C1332       C  0.02330801  0.05560022  0.38766183     0.35900
N1333       N  0.66598038  0.24959897  0.40371516    -0.38900
N1334       N  0.99739098  0.02361617  0.38336946    -0.38900
N1335       N  0.64962242  0.18459671  0.50341432    -0.38400
N1336       N  0.04057068  0.08486587  0.28091291    -0.38400
C1337       C  0.66840475  0.01929572  0.12879736    -0.05000
C1338       C  0.67467625  0.04479952  0.09418320    -0.02100
C1339       C  0.64860514  0.03191106  0.05776718     0.02900
C1340       C  0.61559247  0.49311252  0.05522913    -0.05000
C1341       C  0.60637710  0.47000127  0.09264448    -0.02100
C1342       C  0.63328416  0.48244959  0.12854146     0.02800
C1343       C  0.70743020  0.08496917  0.09612173     0.37500
C1344       C  0.56802247  0.43534835  0.09678397     0.37500
C1345       C  0.62311239  0.45874096  0.16670254     0.35900
C1346       C  0.65453438  0.06006016  0.02444874     0.35900
N1347       N  0.61477901  0.44011217  0.19730659    -0.38900
N1348       N  0.65959572  0.08279171  0.49814803    -0.38900
N1349       N  0.53729545  0.40837737  0.10234799    -0.38400
N1350       N  0.73271720  0.11741504  0.09727613    -0.38400
C1351       C  0.60568695  0.47896819  0.39269679    -0.05000
C1352       C  0.59667673  0.49185302  0.35340109    -0.02100
C1353       C  0.62382306  0.00598243  0.32025303     0.02900
C1354       C  0.65974564  0.00594743  0.32449697    -0.05000
C1355       C  0.66528762  0.98650526  0.35991312    -0.02100
C1356       C  0.63800578  0.97203358  0.39277367     0.02800
C1357       C  0.55722860  0.48441001  0.34325747     0.37500
C1358       C  0.69899437  0.98086407  0.36280469     0.37500
C1359       C  0.64305955  0.94877076  0.42603673     0.35900
C1360       C  0.61304173  0.01687452  0.27976912     0.35900
N1361       N  0.64750950  0.93044762  0.95244517    -0.38900
N1362       N  0.60431373  0.52486540  0.24725209    -0.38900
N1363       N  0.72533863  0.97551941  0.36531431    -0.38400
N1364       N  0.52567772  0.47789786  0.33393377    -0.38400
C1365       C  0.54409126  0.30245661  0.43564347    -0.05000
C1366       C  0.58299325  0.30823239  0.43806472    -0.02100
C1367       C  0.60060264  0.30571204  0.40088001     0.02900
C1368       C  0.57877379  0.29430629  0.36167386    -0.05000
C1369       C  0.54120627  0.29007984  0.35845421    -0.02100
C1370       C  0.52617057  0.29835523  0.39377853     0.02800
C1371       C  0.60704272  0.32062740  0.47736953     0.37500
C1372       C  0.51931125  0.28073163  0.31753202     0.37500
C1373       C  0.99699917  0.31074868  0.38495731     0.35900
C1374       C  0.64191443  0.31711765  0.40261162     0.35900
N1375       N  0.97449523  0.32080496  0.37696690    -0.38900
N1376       N  0.67521895  0.32761138  0.40430552    -0.38900
N1377       N  0.50175355  0.27321137  0.28511131    -0.38400
N1378       N  0.62698759  0.33058125  0.00824149    -0.38400
C1379       C  0.56612572  0.30606626  0.16658624    -0.05000
C1380       C  0.58932788  0.34187520  0.14454501    -0.02100
C1381       C  0.57419598  0.35022736  0.10670032     0.02900
C1382       C  0.53432714  0.32586044  0.09273930    -0.05000
C1383       C  0.50994413  0.29285407  0.11716575    -0.02100
C1384       C  0.52535117  0.28310992  0.15392414     0.02800
C1385       C  0.62941676  0.37010288  0.15917612     0.37500
C1386       C  0.97027291  0.26702726  0.10194198     0.37500
C1387       C  0.49870914  0.24869107  0.17770931     0.35900
C1388       C  0.60124554  0.38098554  0.07901823     0.35900
N1389       N  0.97747091  0.22246017  0.19698880    -0.38900
N1390       N  0.62294754  0.40498991  0.55663688    -0.38900
N1391       N  0.93894312  0.24459358  0.08876318    -0.38400
N1392       N  0.66135958  0.39293563  0.17056068    -0.38400
C1393       C  0.81360526  0.18082004  0.33960398    -0.05000
C1394       C  0.84657337  0.21926356  0.33837500    -0.02100
C1395       C  0.85486512  0.24640675  0.37182237     0.02900
C1396       C  0.83573980  0.23359830  0.41085457    -0.05000
C1397       C  0.79939839  0.19671040  0.40943989    -0.02100
C1398       C  0.78850222  0.17092783  0.37390765     0.02800
C1399       C  0.87232534  0.23109560  0.30295855     0.37500
C1400       C  0.77082997  0.18523848  0.44199043     0.37500
C1401       C  0.75155474  0.13355478  0.37330500     0.35900
C1402       C  0.88114301  0.28801800  0.36500659     0.35900
N1403       N  0.72197939  0.10398808  0.37293242    -0.38900
N1404       N  0.90109871  0.32137836  0.35936508    -0.38900
N1405       N  0.74717697  0.17383534  0.96730138    -0.38400
N1406       N  0.89347441  0.24045004  0.27522454    -0.38400
C1407       C  0.82499932  0.18004259  0.14305190    -0.05000
C1408       C  0.84008674  0.22084675  0.14708799    -0.02100
C1409       C  0.85817540  0.24612428  0.11246667     0.02900
C1410       C  0.85765417  0.23041634  0.07204671    -0.05000
C1411       C  0.84702576  0.19003994  0.07026424    -0.02100
C1412       C  0.82902630  0.16487254  0.10458764     0.02800
C1413       C  0.83698490  0.23693402  0.18689013     0.37500
C1414       C  0.85832634  0.17495724  0.03502046     0.37500
C1415       C  0.81321867  0.12282457  0.09963909     0.35900
C1416       C  0.88368512  0.28750772  0.12125682     0.35900
N1417       N  0.80002745  0.08926724  0.09543078    -0.38900
N1418       N  0.90650991  0.31998357  0.12950751    -0.38900
N1419       N  0.86736613  0.16299015  0.50695020    -0.38400
N1420       N  0.83396466  0.24989531  0.21830742    -0.38400
C1421       C  0.85712341  0.25762371  0.95281135     0.86800
C1422       C  0.85380035  0.29398205  0.96005075    -0.53400
C1423       C  0.87149368  0.31426139  0.49717114     0.09700
C1424       C  0.89522580  0.29775164  0.52267261     0.20700
C1425       C  0.90171563  0.27393927  0.95452530    -0.54200
C1426       C  0.92263837  0.29540460  0.49033275     0.09800
C1427       C  0.84453145  0.23431144  0.99424396    -0.53700
C1428       C  0.86469458  0.25365908  0.53096488     0.10400
H1429       H  0.83774534  0.30236510  0.93776533     0.14900
H1430       H  0.91222844  0.31573843  0.55070114     0.00700
H1431       H  0.91524339  0.26848520  0.92842233     0.15200
H1432       H  0.82302715  0.20353562  0.49480512     0.15000
C1433       C  0.52770752  0.31453297  0.97268433     0.86800
C1434       C  0.98300966  0.29483882  0.97147174    -0.53400
C1435       C  0.96672539  0.31089254  0.49583321     0.09700
C1436       C  0.49911002  0.34495228  0.52446889     0.20700
C1437       C  0.54383292  0.35806028  0.96853701    -0.54200
C1438       C  0.52807925  0.37519950  0.49214487     0.09800
C1439       C  0.53662309  0.30998853  0.01898044    -0.53700
C1440       C  0.52319625  0.32655200  0.54677420     0.10400
H1441       H  0.96577961  0.26796198  0.95298110     0.14900
H1442       H  0.98653384  0.35794969  0.54636951     0.00700
H1443       H  0.56794477  0.37422209  0.94762233     0.15200
H1444       H  0.55164214  0.29453931  0.52981628     0.15000
C1445       C  0.58161973  0.47066169  0.93406977     0.86800
C1446       C  0.55360232  0.42803259  0.94002049    -0.53400
C1447       C  0.53769849  0.41686742  0.47928376     0.09700
C1448       C  0.54687723  0.45420751  0.50740080     0.20700
C1449       C  0.55350845  0.48598377  0.93868102    -0.54200
C1450       C  0.53898991  0.48293616  0.47874286     0.09800
C1451       C  0.60952803  0.48584096  0.47489143    -0.53700
C1452       C  0.59198086  0.47747621  0.51331872     0.10400
H1453       H  0.54820733  0.40771559  0.91411952     0.14900
H1454       H  0.53018605  0.44688298  0.53664608     0.00700
H1455       H  0.55095703  0.00433349  0.91451125     0.15200
H1456       H  0.64125918  0.00260710  0.47299642     0.15000
C1457       C  0.55491971  0.08674652  0.97332761     0.86800
C1458       C  0.56309101  0.05377637  0.97094183    -0.53400
C1459       C  0.54054790  0.02083162  0.49388841     0.09700
C1460       C  0.51572091  0.02884547  0.52639606     0.20700
C1461       C  0.00954037  0.06984809  0.97172797    -0.54200
C1462       C  0.98802268  0.03891204  0.49779773     0.09800
C1463       C  0.56659147  0.09932968  0.51952932    -0.53700
C1464       C  0.54568517  0.07026923  0.54831232     0.10400
H1465       H  0.58616631  0.05716443  0.95062972     0.14900
H1466       H  0.99934878  0.50511589  0.54912983     0.00700
H1467       H  0.99689396  0.08341568  0.95144706     0.15200
H1468       H  0.58486980  0.12950800  0.52996969     0.15000
C1469       C  0.87867432  0.50069014  0.96129170     0.86800
C1470       C  0.92355243  0.02511282  0.96220424    -0.53400
C1471       C  0.94323334  0.51866564  0.49599472     0.09700
C1472       C  0.91415869  0.48794639  0.52773349     0.20700
C1473       C  0.87057518  0.45847300  0.96444095    -0.54200
C1474       C  0.88690532  0.45045769  0.49935001     0.09800
C1475       C  0.86690788  0.50750285  0.00510732    -0.53700
C1476       C  0.88704373  0.50417553  0.53977090     0.10400
H1477       H  0.93772139  0.04408333  0.93572359     0.14900
H1478       H  0.92907410  0.48242179  0.55549067     0.00700
H1479       H  0.85182759  0.43581710  0.94172358     0.15200
H1480       H  0.84213709  0.01132359  0.51003033     0.15000
C1481       C  0.81501250  0.35540054  0.55363947     0.86800
C1482       C  0.83915054  0.33436100  0.55004443    -0.53400
C1483       C  0.85983617  0.34252071  0.01367971     0.09700
C1484       C  0.85485840  0.37229823  0.98467833     0.20700
C1485       C  0.84440058  0.39899177  0.54862218    -0.54200
C1486       C  0.86648121  0.40867801  0.01380202     0.09800
C1487       C  0.78942235  0.34294950  0.51200754    -0.53700
C1488       C  0.80959747  0.35271876  0.97598784     0.10400
H1489       H  0.83557764  0.31090323  0.57118771     0.14900
H1490       H  0.87149942  0.37960757  0.95516200     0.00700
H1491       H  0.84232373  0.42082038  0.56684577     0.15200
H1492       H  0.75740616  0.32605087  0.01075037     0.15000
Fe1493     Fe  0.66611358  0.22934612  0.75276375     1.65800
Fe1494     Fe  0.57568209  0.22183711  0.75678551     1.73200
Fe1495     Fe  0.65883560  0.31222357  0.75900324     1.54400
O1496       O  0.69949707  0.31705657  0.80499957    -0.81400
O1497       O  0.56564938  0.25613393  0.71263994    -0.79700
O1498       O  0.71060597  0.26822891  0.79533499    -0.83900
O1499       O  0.69594125  0.26305325  0.70216549    -0.78700
O1500       O  0.62623864  0.31166327  0.80900374    -0.80500
O1501       O  0.57051139  0.18557487  0.70790760    -0.83200
C1502       C  0.70698241  0.29836034  0.69212083     0.97500
C1503       C  0.71784912  0.29927010  0.81485545     1.05000
O1504       O  0.63354019  0.25451319  0.75546104    -1.12200
O1505       O  0.57914504  0.18515448  0.80182259    -0.74700
O1506       O  0.64053932  0.19557396  0.80485041    -0.78100
O1507       O  0.69586791  0.31947107  0.71050179    -0.78800
C1508       C  0.60646940  0.18083802  0.81918438     0.96400
O1509       O  0.62664862  0.18505369  0.70974741    -0.76800
O1510       O  0.57271858  0.25214404  0.80685309    -0.82000
C1511       C  0.58481816  0.29156089  0.70010358     0.99100
C1512       C  0.59397634  0.28569272  0.82379649     1.05000
O1513       O  0.61983095  0.31473681  0.71429915    -0.77600
C1514       C  0.59152585  0.17232429  0.69491719     1.03300
Fe1515     Fe  0.83079701  0.10702028  0.74670662     1.65800
Fe1516     Fe  0.74803948  0.01567348  0.73264423     1.73200
Fe1517     Fe  0.73974493  0.09869152  0.73545709     1.54400
O1518       O  0.76911861  0.13639378  0.78629919    -0.81400
O1519       O  0.70991435  0.01138909  0.68155287    -0.79700
O1520       O  0.82910503  0.14421084  0.79198831    -0.83900
O1521       O  0.83400155  0.14370429  0.69782120    -0.78700
O1522       O  0.69998255  0.05899979  0.77834298    -0.80500
O1523       O  0.78775333  0.01883507  0.68829014    -0.83200
C1524       C  0.81070928  0.15372888  0.68034737     0.97500
C1525       C  0.80345482  0.15214184  0.80375671     1.05000
O1526       O  0.77279405  0.07372735  0.73831887    -1.12200
O1527       O  0.78267670  0.01197445  0.78296317    -0.74700
O1528       O  0.83291902  0.07301438  0.79580713    -0.78100
O1529       O  0.77568866  0.14072635  0.69190356    -0.78800
C1530       C  0.81340172  0.03668901  0.80454192     0.96400
O1531       O  0.84249473  0.07578647  0.70296150    -0.76800
O1532       O  0.70566755  0.00546121  0.77678120    -0.82000
C1533       C  0.69635454  0.03275660  0.66704513     0.99100
C1534       C  0.69026953  0.02451098  0.79109794     1.05000
O1535       O  0.70529210  0.06531134  0.68406373    -0.77600
C1536       C  0.82388375  0.04354591  0.68226330     1.03300
C1537       C  0.79006190  0.34711613  0.59302563    -0.05000
C1538       C  0.75539031  0.35005161  0.59097199    -0.02100
C1539       C  0.72718129  0.33206955  0.62206036     0.02900
C1540       C  0.73580707  0.31638872  0.65862314    -0.05000
C1541       C  0.77367116  0.32106542  0.66500481    -0.02100
C1542       C  0.80112622  0.33757729  0.63284210     0.02800
C1543       C  0.74982539  0.37409549  0.55918062     0.37500
C1544       C  0.78496350  0.31043270  0.70543584     0.37500
C1545       C  0.84210005  0.35118512  0.64374387     0.35900
C1546       C  0.68849156  0.32769939  0.61504975     0.35900
N1547       N  0.87487941  0.36382717  0.65421514    -0.38900
N1548       N  0.65737556  0.32342195  0.60867481    -0.38900
N1549       N  0.79393271  0.30210239  0.73775963    -0.38400
N1550       N  0.74524624  0.39347399  0.03425293    -0.38400
C1551       C  0.74662720  0.31439750  0.85268724    -0.05000
C1552       C  0.76194532  0.35368351  0.86748280    -0.02100
C1553       C  0.77945919  0.36508467  0.90882739     0.02900
C1554       C  0.78798640  0.33995375  0.93344075    -0.05000
C1555       C  0.77030409  0.30030024  0.92046853    -0.02100
C1556       C  0.75240314  0.28810043  0.87931616     0.02800
C1557       C  0.75907657  0.38273793  0.84099013     0.37500
C1558       C  0.76412726  0.27119357  0.95251737     0.37500
C1559       C  0.73807501  0.24774732  0.86620823     0.35900
C1560       C  0.78014202  0.39834316  0.92881342     0.35900
N1561       N  0.72687089  0.21553398  0.85605613    -0.38900
N1562       N  0.77933763  0.42437977  0.94430826    -0.38900
N1563       N  0.75882814  0.24959986  0.98008089    -0.38400
N1564       N  0.75681341  0.40601212  0.82012215    -0.38400
C1565       C  0.82628868  0.02385696  0.84368403    -0.05000
C1566       C  0.82284457  0.03760784  0.88315073    -0.02100
C1567       C  0.84076569  0.03230580  0.92063528     0.02900
C1568       C  0.85981039  0.00934885  0.92024272    -0.05000
C1569       C  0.86397972  0.49666553  0.87949339    -0.02100
C1570       C  0.84687534  0.00341175  0.84176581     0.02800
C1571       C  0.80129341  0.05857129  0.88493199     0.37500
C1572       C  0.88779469  0.47848293  0.87490431     0.37500
C1573       C  0.85232934  0.99101652  0.80071918     0.35900
C1574       C  0.84216973  0.05498660  0.95712803     0.35900
N1575       N  0.85724430  0.98114852  0.76825154    -0.38900
N1576       N  0.84122623  0.07340928  0.48488691    -0.38900
N1577       N  0.90666991  0.46392119  0.87089264    -0.38400
N1578       N  0.78394779  0.07497995  0.88643372    -0.38400
C1579       C  0.88198772  0.01805364  0.58257440    -0.05000
C1580       C  0.88609642  0.05579850  0.58663651    -0.02100
C1581       C  0.87141832  0.06531098  0.62201471     0.02900
C1582       C  0.84560597  0.03523317  0.64938883    -0.05000
C1583       C  0.84323677  0.49808998  0.64658194    -0.02100
C1584       C  0.86584480  0.49204826  0.61697714     0.02800
C1585       C  0.90520558  0.08527201  0.55441136     0.37500
C1586       C  0.81823953  0.46617635  0.67408379     0.37500
C1587       C  0.87924427  0.46485982  0.62713225     0.35900
C1588       C  0.88369250  0.10619797  0.62998027     0.35900
N1589       N  0.89144031  0.44438413  0.63627065    -0.38900
N1590       N  0.89480820  0.13908382  0.63659905    -0.38900
N1591       N  0.79762898  0.44018861  0.69519952    -0.38400
N1592       N  0.91932607  0.10928570  0.02887270    -0.38400
C1593       C  0.57380671  0.14096884  0.66065259    -0.05000
C1594       C  0.54855055  0.14235351  0.62788674    -0.02100
C1595       C  0.53390940  0.11472812  0.59402559     0.02900
C1596       C  0.54432062  0.08515808  0.59174133    -0.05000
C1597       C  0.56569785  0.08108132  0.62668956    -0.02100
C1598       C  0.58108969  0.10919168  0.66053288     0.02800
C1599       C  0.54047601  0.17451221  0.62624222     0.37500
C1600       C  0.57259074  0.04840064  0.62728269     0.37500
C1601       C  0.60527771  0.10596192  0.69469963     0.35900
C1602       C  0.01222052  0.12122151  0.55867041     0.35900
N1603       N  0.62512834  0.10431643  0.72201619    -0.38900
N1604       N  0.99730898  0.12727931  0.52935050    -0.38900
N1605       N  0.57735564  0.02178001  0.62855485    -0.38400
N1606       N  0.53402851  0.20008985  0.62450530    -0.38400
C1607       C  0.59756037  0.15711461  0.85797375    -0.05000
C1608       C  0.56907551  0.11722851  0.85533345    -0.02100
C1609       C  0.55562636  0.09544553  0.89262107     0.02900
C1610       C  0.57230984  0.11288829  0.93389271    -0.05000
C1611       C  0.60453896  0.15217059  0.93537494    -0.02100
C1612       C  0.61540088  0.17458775  0.89779406     0.02800
C1613       C  0.55342710  0.09857199  0.81379490     0.37500
C1614       C  0.62886689  0.16962670  0.97375907     0.37500
C1615       C  0.64376630  0.21628252  0.90056414     0.35900
C1616       C  0.02330626  0.05558705  0.88765775     0.35900
N1617       N  0.66599031  0.24961622  0.90371942    -0.38900
N1618       N  0.99738262  0.02360608  0.88336632    -0.38900
N1619       N  0.64961372  0.18461863  0.00342230    -0.38400
N1620       N  0.04058221  0.08484422  0.78090925    -0.38400
C1621       C  0.66840456  0.01930486  0.62878601    -0.05000
C1622       C  0.67467281  0.04480459  0.59416836    -0.02100
C1623       C  0.64859576  0.03191314  0.55775717     0.02900
C1624       C  0.61559579  0.49311271  0.55523291    -0.05000
C1625       C  0.60637448  0.47000022  0.59264778    -0.02100
C1626       C  0.63328023  0.48244247  0.62854591     0.02800
C1627       C  0.70743112  0.08497207  0.59609609     0.37500
C1628       C  0.56801619  0.43535200  0.59678511     0.37500
C1629       C  0.62310234  0.45873331  0.66670666     0.35900
C1630       C  0.65451571  0.06006046  0.52443957     0.35900
N1631       N  0.61476375  0.44010411  0.69731042    -0.38900
N1632       N  0.65962223  0.08279263  0.99815613    -0.38900
N1633       N  0.53728637  0.40838484  0.60234786    -0.38400
N1634       N  0.73272212  0.11741624  0.59723892    -0.38400
C1635       C  0.60567976  0.47895447  0.89269478    -0.05000
C1636       C  0.59667746  0.49184895  0.85340106    -0.02100
C1637       C  0.62382083  0.00599030  0.82025008     0.02900
C1638       C  0.65974930  0.00596607  0.82449250    -0.05000
C1639       C  0.66530360  0.98653785  0.85991486    -0.02100
C1640       C  0.63802005  0.97205574  0.89277324     0.02800
C1641       C  0.55723542  0.48442186  0.84325516     0.37500
C1642       C  0.69902974  0.98092847  0.86281990     0.37500
C1643       C  0.64307464  0.94878766  0.92602914     0.35900
C1644       C  0.61303426  0.01688277  0.77976944     0.35900
N1645       N  0.64749568  0.93043678  0.45245928    -0.38900
N1646       N  0.60432691  0.52486417  0.74725194    -0.38900
N1647       N  0.72539129  0.97561122  0.86534333    -0.38400
N1648       N  0.52569015  0.47792412  0.83392700    -0.38400
C1649       C  0.54409095  0.30245985  0.93562928    -0.05000
C1650       C  0.58299103  0.30823035  0.93805418    -0.02100
C1651       C  0.60060745  0.30572227  0.90086930     0.02900
C1652       C  0.57878661  0.29433187  0.86165810    -0.05000
C1653       C  0.54122583  0.29012123  0.85843249    -0.02100
C1654       C  0.52618301  0.29838288  0.89376104     0.02800
C1655       C  0.60703248  0.32060923  0.97736471     0.37500
C1656       C  0.51934900  0.28080777  0.81750111     0.37500
C1657       C  0.99698007  0.31071309  0.88496612     0.35900
C1658       C  0.64192027  0.31713128  0.90260474     0.35900
N1659       N  0.97447596  0.32076785  0.87696988    -0.38900
N1660       N  0.67522584  0.32762940  0.90429983    -0.38900
N1661       N  0.50180660  0.27331755  0.78507240    -0.38400
N1662       N  0.62700404  0.33061157  0.50824169    -0.38400
C1663       C  0.56614438  0.30608966  0.66658605    -0.05000
C1664       C  0.58934643  0.34189858  0.64454567    -0.02100
C1665       C  0.57421290  0.35025233  0.60670328     0.02900
C1666       C  0.53434225  0.32588789  0.59274578    -0.05000
C1667       C  0.50995872  0.29288445  0.61717601    -0.02100
C1668       C  0.52536767  0.28313926  0.65393202     0.02800
C1669       C  0.62943529  0.37012555  0.65917742     0.37500
C1670       C  0.97026070  0.26698805  0.60192543     0.37500
C1671       C  0.49872465  0.24872818  0.67772669     0.35900
C1672       C  0.60126228  0.38100806  0.57901899     0.35900
N1673       N  0.97746182  0.22241170  0.69695970    -0.38900
N1674       N  0.62293087  0.40496973  0.05663818    -0.38900
N1675       N  0.93893478  0.24454885  0.58874173    -0.38400
N1676       N  0.66137746  0.39295841  0.67056391    -0.38400
C1677       C  0.81361213  0.18082111  0.83959894    -0.05000
C1678       C  0.84658237  0.21926368  0.83837380    -0.02100
C1679       C  0.85487594  0.24640467  0.87182476     0.02900
C1680       C  0.83574845  0.23359484  0.91085581    -0.05000
C1681       C  0.79940518  0.19670891  0.90943685    -0.02100
C1682       C  0.78850840  0.17092847  0.87390222     0.02800
C1683       C  0.87233283  0.23109774  0.80295584     0.37500
C1684       C  0.77083493  0.18523825  0.94198498     0.37500
C1685       C  0.75155925  0.13355699  0.87329676     0.35900
C1686       C  0.88115250  0.28801634  0.86501087     0.35900
N1687       N  0.72198330  0.10399084  0.87292258    -0.38900
N1688       N  0.90110615  0.32137712  0.85937004    -0.38900
N1689       N  0.74717425  0.17383442  0.46730944    -0.38400
N1690       N  0.89348003  0.24045333  0.77521994    -0.38400
C1691       C  0.82501176  0.18005138  0.64304446    -0.05000
C1692       C  0.84010327  0.22085623  0.64708259    -0.02100
C1693       C  0.85819122  0.24613380  0.61246130     0.02900
C1694       C  0.85766415  0.23042538  0.57203993    -0.05000
C1695       C  0.84703255  0.19004807  0.57025477    -0.02100
C1696       C  0.82903393  0.16488070  0.60457814     0.02800
C1697       C  0.83700299  0.23694400  0.68688500     0.37500
C1698       C  0.85832779  0.17496335  0.53500765     0.37500
C1699       C  0.81322048  0.12283206  0.59962642     0.35900
C1700       C  0.88370363  0.28751714  0.62125090     0.35900
N1701       N  0.80002465  0.08927438  0.59541463    -0.38900
N1702       N  0.90652991  0.31999296  0.62950011    -0.38900
N1703       N  0.86736980  0.16298768  0.00696430    -0.38400
N1704       N  0.83398352  0.24990659  0.71830173    -0.38400
C1705       C  0.85712563  0.75765196  0.45286671     0.86800
C1706       C  0.85382360  0.79402435  0.46008528    -0.53400
C1707       C  0.87149631  0.81430896  0.99720413     0.09700
C1708       C  0.89520785  0.79778154  0.02273389     0.20700
C1709       C  0.90171384  0.77395119  0.45460028    -0.54200
C1710       C  0.92262861  0.79541968  0.99041103     0.09800
C1711       C  0.84450929  0.73434494  0.49429905    -0.53700
C1712       C  0.86466125  0.75368688  0.03101841     0.10400
H1713       H  0.83779892  0.80242414  0.43777744     0.14900
H1714       H  0.91220274  0.81575920  0.05077366     0.00700
H1715       H  0.91523799  0.76848720  0.42850161     0.15200
H1716       H  0.82298906  0.70357698  0.99486167     0.15000
C1717       C  0.52781179  0.81460741  0.47268679     0.86800
C1718       C  0.98298694  0.79481690  0.47155061    -0.53400
C1719       C  0.96671720  0.81089076  0.99591335     0.09700
C1720       C  0.49911818  0.84493060  0.02446254     0.20700
C1721       C  0.54394712  0.85814427  0.46861655    -0.54200
C1722       C  0.52812204  0.87522889  0.99219602     0.09800
C1723       C  0.53666110  0.80999469  0.51898379    -0.53700
C1724       C  0.52318403  0.82650720  0.04677363     0.10400
H1725       H  0.96573794  0.76791281  0.45310761     0.14900
H1726       H  0.98658794  0.85800268  0.04640679     0.00700
H1727       H  0.56807035  0.87434835  0.44772424     0.15200
H1728       H  0.55166975  0.79453496  0.02981121     0.15000
C1729       C  0.58153949  0.97058840  0.43400590     0.86800
C1730       C  0.55346515  0.92796777  0.43996707    -0.53400
C1731       C  0.53759659  0.91683693  0.97925365     0.09700
C1732       C  0.54682382  0.95420328  0.00734672     0.20700
C1733       C  0.55349660  0.98599078  0.43862117    -0.54200
C1734       C  0.53897857  0.98295540  0.97868307     0.09800
C1735       C  0.60946131  0.98574955  0.97482233    -0.53700
C1736       C  0.59192223  0.97742502  0.01324958     0.10400
H1737       H  0.54807079  0.90761928  0.41409870     0.14900
H1738       H  0.53014028  0.94691024  0.03659642     0.00700
H1739       H  0.55091802  0.50430957  0.41458701     0.15200
H1740       H  0.64133082  0.50270750  0.97306580     0.15000
C1741       C  0.55495327  0.58673586  0.47335770     0.86800
C1742       C  0.56311797  0.55376090  0.47099449    -0.53400
C1743       C  0.54056926  0.52081655  0.99393679     0.09700
C1744       C  0.51572214  0.52883171  0.02640877     0.20700
C1745       C  0.00953044  0.56984339  0.47173695    -0.54200
C1746       C  0.98802860  0.53890633  0.99782187     0.09800
C1747       C  0.56663120  0.59931273  0.01956478    -0.53700
C1748       C  0.54569102  0.57025227  0.04833652     0.10400
H1749       H  0.58620684  0.55714675  0.45070392     0.14900
H1750       H  0.99930567  0.00512079  0.04913799     0.00700
H1751       H  0.99687024  0.58339185  0.45144750     0.15200
H1752       H  0.58493145  0.62948649  0.03001279     0.15000
C1753       C  0.87871314  0.00075478  0.46112856     0.86800
C1754       C  0.92351424  0.52512151  0.46235962    -0.53400
C1755       C  0.94322575  0.01866804  0.99589925     0.09700
C1756       C  0.91410631  0.98800532  0.02765020     0.20700
C1757       C  0.87053561  0.95851244  0.46435109    -0.54200
C1758       C  0.88681896  0.95050127  0.99930167     0.09800
C1759       C  0.86695715  0.00765623  0.50491271    -0.53700
C1760       C  0.88704573  0.00432126  0.03961411     0.10400
H1761       H  0.93764904  0.54414726  0.43590598     0.14900
H1762       H  0.92898686  0.98247852  0.05543973     0.00700
H1763       H  0.85178414  0.93584888  0.44164714     0.15200
H1764       H  0.84204612  0.51107611  0.01029228     0.15000
C1765       C  0.81492346  0.85540856  0.05355709     0.86800
C1766       C  0.83909544  0.83439911  0.05001062    -0.53400
C1767       C  0.85983842  0.84257374  0.51368054     0.09700
C1768       C  0.85484837  0.87233242  0.48464827     0.20700
C1769       C  0.84429282  0.89901580  0.04856051    -0.54200
C1770       C  0.86641331  0.90871184  0.51375331     0.09800
C1771       C  0.78937298  0.84294515  0.01190243    -0.53700
C1772       C  0.80958759  0.85271432  0.47591434     0.10400
H1773       H  0.83551224  0.81094235  0.07116013     0.14900
H1774       H  0.87151448  0.87965399  0.45514910     0.00700
H1775       H  0.84218705  0.92080363  0.06675803     0.15200
H1776       H  0.75736689  0.82600449  0.51062307     0.15000
Fe1777     Fe  0.66608884  0.72931329  0.25273939     1.65800
Fe1778     Fe  0.57566607  0.72179741  0.25686423     1.73200
Fe1779     Fe  0.65881714  0.81217675  0.25896405     1.54400
O1780       O  0.69940601  0.81697638  0.30501740    -0.81400
O1781       O  0.56557909  0.75615261  0.21283582    -0.79700
O1782       O  0.71066636  0.76826798  0.29520105    -0.83900
O1783       O  0.69581618  0.76293460  0.20205017    -0.78700
O1784       O  0.62619760  0.81167145  0.30890418    -0.80500
O1785       O  0.57045961  0.68561144  0.20788480    -0.83200
C1786       C  0.70691956  0.79826648  0.19206324     0.97500
C1787       C  0.71783452  0.79925257  0.31479480     1.05000
O1788       O  0.63351653  0.75447271  0.25546485    -1.12200
O1789       O  0.57915043  0.68502672  0.30178554    -0.74700
O1790       O  0.64060809  0.69562307  0.30490294    -0.78100
O1791       O  0.69588652  0.81940782  0.21051844    -0.78800
C1792       C  0.60651153  0.68078951  0.31918907     0.96400
O1793       O  0.62653822  0.68497094  0.20982726    -0.76800
O1794       O  0.57279287  0.75206306  0.30703589    -0.82000
C1795       C  0.58478890  0.79152797  0.20014623     0.99100
C1796       C  0.59402669  0.78567755  0.32384301     1.05000
O1797       O  0.61986166  0.81466677  0.21419049    -0.77600
C1798       C  0.59143910  0.67229805  0.19494703     1.03300
Fe1799     Fe  0.83090658  0.60702983  0.24680243     1.65800
Fe1800     Fe  0.74814515  0.51567034  0.23275624     1.73200
Fe1801     Fe  0.73985548  0.59868464  0.23553205     1.54400
O1802       O  0.76923521  0.63642091  0.28634328    -0.81400
O1803       O  0.71000291  0.51134920  0.18165478    -0.79700
O1804       O  0.82924484  0.64430325  0.29200848    -0.83900
O1805       O  0.83409644  0.64365035  0.19783872    -0.78700
O1806       O  0.70012588  0.55901574  0.27844976    -0.80500
O1807       O  0.78785251  0.51881217  0.18841741    -0.83200
C1808       C  0.81079970  0.65367883  0.18037637     0.97500
C1809       C  0.80358246  0.65221620  0.30377668     1.05000
O1810       O  0.77290379  0.57372800  0.23840958    -1.12200
O1811       O  0.78279141  0.51201532  0.28308420    -0.74700
O1812       O  0.83299869  0.57306919  0.29598322    -0.78100
O1813       O  0.77579029  0.64069634  0.19196049    -0.78800
C1814       C  0.81348394  0.53673794  0.30470031     0.96400
O1815       O  0.84261215  0.57573548  0.20313987    -0.76800
O1816       O  0.70578049  0.50546202  0.27688909    -0.82000
C1817       C  0.69643793  0.53271226  0.16714338     0.99100
C1818       C  0.69040172  0.52452551  0.29121027     1.05000
O1819       O  0.70538301  0.56527133  0.18415902    -0.77600
C1820       C  0.82399595  0.54349924  0.18243377     1.03300
C1821       C  0.78994049  0.84708585  0.09292404    -0.05000
C1822       C  0.75520028  0.84990421  0.09084874    -0.02100
C1823       C  0.72702130  0.83191286  0.12196831     0.02900
C1824       C  0.73571106  0.81629117  0.15853947    -0.05000
C1825       C  0.77361206  0.82106389  0.16492124    -0.02100
C1826       C  0.80105715  0.83762709  0.13275720     0.02800
C1827       C  0.74953760  0.87385961  0.05902079     0.37500
C1828       C  0.78495146  0.81048237  0.20535532     0.37500
C1829       C  0.84205547  0.85134794  0.14365618     0.35900
C1830       C  0.68831494  0.82752073  0.11502128     0.35900
N1831       N  0.87485235  0.86407691  0.15410571    -0.38900
N1832       N  0.65718895  0.82323853  0.10872230    -0.38900
N1833       N  0.79396069  0.80219315  0.23768072    -0.38400
N1834       N  0.74491453  0.89318554  0.53408047    -0.38400
C1835       C  0.74662213  0.81439215  0.35261288    -0.05000
C1836       C  0.76189223  0.85366417  0.36743264    -0.02100
C1837       C  0.77943153  0.86506980  0.40876653     0.02900
C1838       C  0.78800410  0.83995549  0.43335283    -0.05000
C1839       C  0.77034602  0.80030653  0.42036553    -0.02100
C1840       C  0.75243940  0.78810787  0.37921532     0.02800
C1841       C  0.75890171  0.88268363  0.34099627     0.37500
C1842       C  0.76417642  0.77119321  0.45240335     0.37500
C1843       C  0.73810347  0.74775350  0.36610288     0.35900
C1844       C  0.78010298  0.89831473  0.42877448     0.35900
N1845       N  0.72688362  0.71553604  0.35595417    -0.38900
N1846       N  0.77929541  0.92434469  0.44428253    -0.38900
N1847       N  0.75888045  0.74958771  0.47995341    -0.38400
N1848       N  0.75652057  0.90591999  0.32017857    -0.38400
C1849       C  0.82633713  0.52387685  0.34383935    -0.05000
C1850       C  0.82262094  0.53737075  0.38333718    -0.02100
C1851       C  0.84048446  0.53203217  0.42085210     0.02900
C1852       C  0.85974141  0.50927101  0.42042546    -0.05000
C1853       C  0.86387143  0.99656268  0.37933038    -0.02100
C1854       C  0.84709464  0.50360839  0.34190795     0.02800
C1855       C  0.80084659  0.55810657  0.38512073     0.37500
C1856       C  0.88762838  0.97831805  0.37473514     0.37500
C1857       C  0.85281909  0.49148794  0.30083444     0.35900
C1858       C  0.84158648  0.55447452  0.45742761     0.35900
N1859       N  0.85795621  0.48185611  0.26834247    -0.38900
N1860       N  0.84046496  0.57274467  0.98525045    -0.38900
N1861       N  0.90646998  0.96372028  0.37071742    -0.38400
N1862       N  0.78331807  0.57432833  0.38662361    -0.38400
C1863       C  0.88203759  0.51794734  0.08274022    -0.05000
C1864       C  0.88610576  0.55568054  0.08675837    -0.02100
C1865       C  0.87147331  0.56522113  0.12215180     0.02900
C1866       C  0.84571980  0.53517110  0.14958223    -0.05000
C1867       C  0.84309195  0.99815409  0.14633572    -0.02100
C1868       C  0.86573844  0.99213683  0.11676517     0.02800
C1869       C  0.90505872  0.58508842  0.05442802     0.37500
C1870       C  0.81801471  0.96619356  0.17374193     0.37500
C1871       C  0.87918422  0.96499450  0.12696878     0.35900
C1872       C  0.88372482  0.60610817  0.13007131     0.35900
N1873       N  0.89143352  0.94457074  0.13614322    -0.38900
N1874       N  0.89482426  0.63899543  0.13665690    -0.38900
N1875       N  0.79733139  0.94016345  0.19476728    -0.38400
N1876       N  0.91901808  0.60899822  0.52877345    -0.38400
C1877       C  0.57371981  0.64093271  0.16069041    -0.05000
C1878       C  0.54845407  0.64229424  0.12791922    -0.02100
C1879       C  0.53388565  0.61470542  0.09402466     0.02900
C1880       C  0.54431312  0.58514486  0.09175610    -0.05000
C1881       C  0.56570965  0.58109581  0.12670258    -0.02100
C1882       C  0.58107509  0.60920317  0.16054494     0.02800
C1883       C  0.54032569  0.67441680  0.12627924     0.37500
C1884       C  0.57271856  0.54849045  0.12726069     0.37500
C1885       C  0.60535886  0.60605016  0.19465435     0.35900
C1886       C  0.01213005  0.62111393  0.05875875     0.35900
N1887       N  0.62530447  0.60448900  0.22191581    -0.38900
N1888       N  0.99711634  0.62710808  0.02948761    -0.38900
N1889       N  0.57759595  0.52194049  0.12850736    -0.38400
N1890       N  0.53383460  0.69996497  0.12453522    -0.38400
C1891       C  0.59762183  0.65706210  0.35798009    -0.05000
C1892       C  0.56914714  0.61717122  0.35534959    -0.02100
C1893       C  0.55566776  0.59540723  0.39264493     0.02900
C1894       C  0.57235096  0.61286035  0.43391446    -0.05000
C1895       C  0.60458819  0.65213470  0.43538861    -0.02100
C1896       C  0.61545909  0.67454020  0.39780047     0.02800
C1897       C  0.55355358  0.59848460  0.31381555     0.37500
C1898       C  0.62890413  0.66959714  0.47377851     0.37500
C1899       C  0.64384077  0.71622716  0.40056394     0.35900
C1900       C  0.02337253  0.55561602  0.38764585     0.35900
N1901       N  0.66608665  0.74955420  0.40371982    -0.38900
N1902       N  0.99749841  0.52361428  0.38332379    -0.38900
N1903       N  0.64964198  0.68459423  0.50344619    -0.38400
N1904       N  0.04060592  0.58493205  0.28090799    -0.38400
C1905       C  0.66848708  0.51926644  0.12887423    -0.05000
C1906       C  0.67474957  0.54478843  0.09427820    -0.02100
C1907       C  0.64866191  0.53192761  0.05787254     0.02900
C1908       C  0.61553557  0.99309460  0.05514929    -0.05000
C1909       C  0.60631092  0.97000586  0.09257966    -0.02100
C1910       C  0.63320541  0.98247979  0.12848266     0.02800
C1911       C  0.70751379  0.58495220  0.09622500     0.37500
C1912       C  0.56796804  0.93533618  0.09671515     0.37500
C1913       C  0.62302733  0.95879924  0.16666530     0.35900
C1914       C  0.65455898  0.56011106  0.02460588     0.35900
N1915       N  0.61469264  0.94019698  0.19728832    -0.38900
N1916       N  0.65964857  0.58287618  0.49836449    -0.38900
N1917       N  0.53725081  0.90835054  0.10227777    -0.38400
N1918       N  0.73281064  0.61739344  0.09738672    -0.38400
C1919       C  0.60558440  0.97886187  0.39262183    -0.05000
C1920       C  0.59649332  0.99163397  0.35329684    -0.02100
C1921       C  0.62402254  0.50618077  0.32037859     0.02900
C1922       C  0.65986474  0.50599101  0.32458754    -0.05000
C1923       C  0.66530167  0.48642076  0.35994575    -0.02100
C1924       C  0.63803682  0.47202827  0.39282687     0.02800
C1925       C  0.55699372  0.98406003  0.34318322     0.37500
C1926       C  0.69885823  0.48053546  0.36273722     0.37500
C1927       C  0.64303953  0.44874612  0.42610517     0.35900
C1928       C  0.61331308  0.51718455  0.27992261     0.35900
N1929       N  0.64741293  0.43037712  0.95254934    -0.38900
N1930       N  0.60398788  0.02447280  0.24708087    -0.38900
N1931       N  0.72507302  0.47498722  0.36515428    -0.38400
N1932       N  0.52539521  0.97743333  0.33391289    -0.38400
C1933       C  0.54421921  0.80258512  0.43561867    -0.05000
C1934       C  0.58306644  0.80822674  0.43808696    -0.02100
C1935       C  0.60067294  0.80567485  0.40091754     0.02900
C1936       C  0.57888987  0.79439354  0.36168295    -0.05000
C1937       C  0.54142409  0.79039377  0.35839655    -0.02100
C1938       C  0.52639135  0.79865849  0.39373050     0.02800
C1939       C  0.60707637  0.82053066  0.47742038     0.37500
C1940       C  0.51966887  0.78130745  0.31740229     0.37500
C1941       C  0.99681945  0.81046011  0.38499496     0.35900
C1942       C  0.64195730  0.81698269  0.40267996     0.35900
N1943       N  0.97427165  0.82045174  0.37696171    -0.38900
N1944       N  0.67524899  0.82742122  0.40440713    -0.38900
N1945       N  0.50224206  0.77401448  0.28491197    -0.38400
N1946       N  0.62702706  0.83049789  0.00830175    -0.38400
C1947       C  0.56609897  0.80603604  0.16661755    -0.05000
C1948       C  0.58928737  0.84186262  0.14459608    -0.02100
C1949       C  0.57416483  0.85020641  0.10673935     0.02900
C1950       C  0.53430709  0.82582020  0.09275049    -0.05000
C1951       C  0.50993052  0.79279264  0.11715520    -0.02100
C1952       C  0.52533312  0.78305277  0.15392294     0.02800
C1953       C  0.62935238  0.87012768  0.15926646     0.37500
C1954       C  0.97030895  0.76714540  0.10204171     0.37500
C1955       C  0.49869719  0.74860778  0.17767770     0.35900
C1956       C  0.60122258  0.88097455  0.07907124     0.35900
N1957       N  0.97753214  0.72261331  0.19710032    -0.38900
N1958       N  0.62290558  0.90495225  0.55670395    -0.38900
N1959       N  0.93895419  0.74473456  0.08890787    -0.38400
N1960       N  0.66127496  0.89298976  0.17068301    -0.38400
C1961       C  0.81371248  0.68089202  0.33961996    -0.05000
C1962       C  0.84664336  0.71936287  0.33840632    -0.02100
C1963       C  0.85489558  0.74647917  0.37187527     0.02900
C1964       C  0.83576976  0.73362773  0.41090245    -0.05000
C1965       C  0.79945529  0.69671531  0.40946575    -0.02100
C1966       C  0.78859927  0.67095495  0.37392084     0.02800
C1967       C  0.87239164  0.73125702  0.30298372     0.37500
C1968       C  0.77086031  0.68520063  0.44199348     0.37500
C1969       C  0.75166682  0.63356662  0.37328985     0.35900
C1970       C  0.88113649  0.78810476  0.36509745     0.35900
N1971       N  0.72209687  0.60399370  0.37288772    -0.38900
N1972       N  0.90106111  0.82147731  0.35949949    -0.38900
N1973       N  0.74717117  0.67378288  0.96728211    -0.38400
N1974       N  0.89354479  0.74067853  0.27524766    -0.38400
C1975       C  0.82508437  0.68001305  0.14307890    -0.05000
C1976       C  0.84009082  0.72080170  0.14712354    -0.02100
C1977       C  0.85813471  0.74610170  0.11250584     0.02900
C1978       C  0.85764526  0.73042761  0.07207632    -0.05000
C1979       C  0.84705946  0.69005973  0.07026648    -0.02100
C1980       C  0.82911074  0.66487348  0.10459432     0.02800
C1981       C  0.83692054  0.73684584  0.18692233     0.37500
C1982       C  0.85831737  0.67498933  0.03497203     0.37500
C1983       C  0.81331974  0.62283042  0.09961781     0.35900
C1984       C  0.88353905  0.78749904  0.12129673     0.35900
N1985       N  0.80013651  0.58927633  0.09538637    -0.38900
N1986       N  0.90628209  0.81999530  0.12955587    -0.38900
N1987       N  0.86732109  0.66299685  0.50689053    -0.38400
N1988       N  0.83383419  0.74976666  0.21833407    -0.38400
C1989       C  0.85711618  0.75766147  0.95285876     0.86800
C1990       C  0.85382120  0.79403883  0.96007459    -0.53400
C1991       C  0.87149701  0.81429429  0.49721476     0.09700
C1992       C  0.89521208  0.79777102  0.52274402     0.20700
C1993       C  0.90170299  0.77395378  0.95459209    -0.54200
C1994       C  0.92263685  0.79541755  0.49042039     0.09800
C1995       C  0.84449750  0.73435745  0.99429322    -0.53700
C1996       C  0.86466961  0.75367396  0.53102561     0.10400
H1997       H  0.83779856  0.80244012  0.93776723     0.14900
H1998       H  0.91220399  0.81574837  0.55078512     0.00700
H1999       H  0.91522391  0.76848387  0.92849474     0.15200
H2000       H  0.82300403  0.70356400  0.49486490     0.15000
C2001       C  0.52781247  0.81461494  0.97268971     0.86800
C2002       C  0.98297222  0.79480424  0.97154158    -0.53400
C2003       C  0.96672751  0.81089919  0.49592122     0.09700
C2004       C  0.49911598  0.84492163  0.52445962     0.20700
C2005       C  0.54394142  0.85814991  0.96861104    -0.54200
C2006       C  0.52812526  0.87522157  0.49219986     0.09800
C2007       C  0.53667021  0.81001088  0.01898626    -0.53700
C2008       C  0.52317481  0.82649127  0.54677088     0.10400
H2009       H  0.96572001  0.76790159  0.95309724     0.14900
H2010       H  0.98659179  0.85801402  0.54640994     0.00700
H2011       H  0.56806265  0.87435232  0.94771533     0.15200
H2012       H  0.55165549  0.79451434  0.52980955     0.15000
C2013       C  0.58154977  0.97059885  0.93400866     0.86800
C2014       C  0.55346864  0.92797887  0.93996629    -0.53400
C2015       C  0.53759459  0.91682650  0.47925481     0.09700
C2016       C  0.54681633  0.95419185  0.50734559     0.20700
C2017       C  0.55351490  0.98600984  0.93862484    -0.54200
C2018       C  0.53896356  0.98293803  0.47868129     0.09800
C2019       C  0.60945209  0.98574591  0.47481783    -0.53700
C2020       C  0.59191460  0.97742062  0.51324580     0.10400
H2021       H  0.54807098  0.90763118  0.91409608     0.14900
H2022       H  0.53013378  0.94689773  0.53659601     0.00700
H2023       H  0.55089725  0.50428623  0.91458499     0.15200
H2024       H  0.64133531  0.50270853  0.47307185     0.15000
C2025       C  0.55496998  0.58672723  0.97336124     0.86800
C2026       C  0.56312331  0.55374580  0.97099290    -0.53400
C2027       C  0.54056796  0.52082977  0.49393738     0.09700
C2028       C  0.51571350  0.52883869  0.52640619     0.20700
C2029       C  0.00951797  0.56984109  0.97173472    -0.54200
C2030       C  0.98803798  0.53891044  0.49782422     0.09800
C2031       C  0.56660702  0.59932466  0.51956111    -0.53700
C2032       C  0.54567336  0.57026181  0.54833283     0.10400
H2033       H  0.58620673  0.55712533  0.95069743     0.14900
H2034       H  0.99930879  0.00513121  0.54914162     0.00700
H2035       H  0.99685443  0.58338624  0.95144514     0.15200
H2036       H  0.58489853  0.62950033  0.53000817     0.15000
C2037       C  0.87872754  0.00077737  0.96112217     0.86800
C2038       C  0.92349941  0.52511172  0.96236540    -0.53400
C2039       C  0.94321734  0.01866080  0.49590314     0.09700
C2040       C  0.91410281  0.98798898  0.52765101     0.20700
C2041       C  0.87053469  0.95853046  0.96435416    -0.54200
C2042       C  0.88682222  0.95048466  0.49929849     0.09800
C2043       C  0.86697807  0.00769413  0.00490388    -0.53700
C2044       C  0.88703233  0.00429121  0.53961948     0.10400
H2045       H  0.93763120  0.54414057  0.93591283     0.14900
H2046       H  0.92898732  0.98246491  0.55543855     0.00700
H2047       H  0.85177822  0.93586555  0.94165398     0.15200
H2048       H  0.84206990  0.51111373  0.51027725     0.15000
C2049       C  0.81492484  0.85539461  0.55356409     0.86800
C2050       C  0.83909908  0.83438722  0.55001950    -0.53400
C2051       C  0.85983661  0.84258759  0.01367226     0.09700
C2052       C  0.85484962  0.87235053  0.98464356     0.20700
C2053       C  0.84429194  0.89899961  0.54855914    -0.54200
C2054       C  0.86641498  0.90872773  0.01375271     0.09800
C2055       C  0.78937212  0.84292591  0.51190994    -0.53700
C2056       C  0.80958926  0.85273498  0.97590788     0.10400
H2057       H  0.83551719  0.81093139  0.57116977     0.14900
H2058       H  0.87151698  0.87967399  0.95514474     0.00700
H2059       H  0.84218468  0.92080127  0.56676328     0.15200
H2060       H  0.75736774  0.82602145  0.01061337     0.15000
Fe2061     Fe  0.66608345  0.72931149  0.75274536     1.65800
Fe2062     Fe  0.57565846  0.72178611  0.75687232     1.73200
Fe2063     Fe  0.65880376  0.81216883  0.75896218     1.54400
O2064       O  0.69937826  0.81696840  0.80503157    -0.81400
O2065       O  0.56556375  0.75615085  0.71286162    -0.79700
O2066       O  0.71066677  0.76828069  0.79519575    -0.83900
O2067       O  0.69579921  0.76292126  0.70204597    -0.78700
O2068       O  0.62616787  0.81166467  0.80888770    -0.80500
O2069       O  0.57045776  0.68561920  0.70787780    -0.83200
C2070       C  0.70691410  0.79825723  0.69206768     0.97500
C2071       C  0.71781970  0.79925603  0.81479987     1.05000
O2072       O  0.63350745  0.75446587  0.75546870    -1.12200
O2073       O  0.57914356  0.68500049  0.80177584    -0.74700
O2074       O  0.64061396  0.69563296  0.80491773    -0.78100
O2075       O  0.69588947  0.81940233  0.71053050    -0.78800
C2076       C  0.60651116  0.68078000  0.81919110     0.96400
O2077       O  0.62652659  0.68495824  0.70984429    -0.76800
O2078       O  0.57278962  0.75203723  0.80705928    -0.82000
C2079       C  0.58477923  0.79151836  0.70014859     0.99100
C2080       C  0.59401139  0.78566189  0.82384690     1.05000
O2081       O  0.61986018  0.81465242  0.71417081    -0.77600
C2082       C  0.59143298  0.67229683  0.69495059     1.03300
Fe2083     Fe  0.83090381  0.60702415  0.74681102     1.65800
Fe2084     Fe  0.74814747  0.51566128  0.73276199     1.73200
Fe2085     Fe  0.73985052  0.59867088  0.73553963     1.54400
O2086       O  0.76922666  0.63640944  0.78634994    -0.81400
O2087       O  0.71000339  0.51133552  0.68166026    -0.79700
O2088       O  0.82924054  0.64430343  0.79200948    -0.83900
O2089       O  0.83408969  0.64363534  0.69784052    -0.78700
O2090       O  0.70012480  0.55900022  0.77845808    -0.80500
O2091       O  0.78785642  0.51880630  0.68842336    -0.83200
C2092       C  0.81079196  0.65366261  0.68037862     0.97500
C2093       C  0.80357563  0.65221208  0.80377945     1.05000
O2094       O  0.77290184  0.57371843  0.73841671    -1.12200
O2095       O  0.78279602  0.51201365  0.78309048    -0.74700
O2096       O  0.83299490  0.57307087  0.79599868    -0.78100
O2097       O  0.77578379  0.64068276  0.69196632    -0.78800
C2098       C  0.81348301  0.53673889  0.80471198     0.96400
O2099       O  0.84261501  0.57572716  0.70315610    -0.76800
O2100       O  0.70578107  0.50544763  0.77689375    -0.82000
C2101       C  0.69643633  0.53269744  0.66715106     0.99100
C2102       C  0.69040123  0.52450944  0.79121618     1.05000
O2103       O  0.70537911  0.56525499  0.68416859    -0.77600
C2104       C  0.82400087  0.54349330  0.68244521     1.03300
C2105       C  0.78994277  0.84707279  0.59293222    -0.05000
C2106       C  0.75520911  0.84990245  0.59085947    -0.02100
C2107       C  0.72702842  0.83191508  0.62197864     0.02900
C2108       C  0.73570861  0.81628061  0.65854534    -0.05000
C2109       C  0.77360272  0.82103568  0.66492317    -0.02100
C2110       C  0.80105120  0.83760006  0.63276221     0.02800
C2111       C  0.74955370  0.87386186  0.55903104     0.37500
C2112       C  0.78493210  0.81043450  0.70535090     0.37500
C2113       C  0.84204729  0.85131402  0.64366577     0.35900
C2114       C  0.68832833  0.82753809  0.61503421     0.35900
N2115       N  0.87484256  0.86403878  0.65411992    -0.38900
N2116       N  0.65720697  0.82326784  0.60873699    -0.38900
N2117       N  0.79393236  0.80212878  0.73767139    -0.38400
N2118       N  0.74489201  0.89317956  0.03407057    -0.38400
C2119       C  0.74660706  0.81439937  0.85261711    -0.05000
C2120       C  0.76187605  0.85367242  0.86743343    -0.02100
C2121       C  0.77942462  0.86508385  0.90876306     0.02900
C2122       C  0.78800422  0.83997340  0.93334778    -0.05000
C2123       C  0.77034225  0.80032216  0.92036663    -0.02100
C2124       C  0.75242632  0.78811766  0.87922114     0.02800
C2125       C  0.75887004  0.88268533  0.84100047     0.37500
C2126       C  0.76417906  0.77121289  0.95240751     0.37500
C2127       C  0.73807837  0.74775875  0.86611737     0.35900
C2128       C  0.78009977  0.89833114  0.92877031     0.35900
N2129       N  0.72684728  0.71553712  0.85597649    -0.38900
N2130       N  0.77929542  0.92436299  0.94427817    -0.38900
N2131       N  0.75888914  0.74961094  0.97995978    -0.38400
N2132       N  0.75647488  0.90591614  0.82018684    -0.38400
C2133       C  0.82633437  0.52387634  0.84384922    -0.05000
C2134       C  0.82259068  0.53734375  0.88335010    -0.02100
C2135       C  0.84044647  0.53199856  0.92086751     0.02900
C2136       C  0.85972272  0.50925471  0.92043626    -0.05000
C2137       C  0.86385603  0.99655062  0.87932624    -0.02100
C2138       C  0.84711173  0.50362882  0.84191409     0.02800
C2139       C  0.80080056  0.55806384  0.88513358     0.37500
C2140       C  0.88760410  0.97829628  0.87473012     0.37500
C2141       C  0.85287746  0.49155397  0.80083432     0.35900
C2142       C  0.84151558  0.55441481  0.95745212     0.35900
N2143       N  0.85804783  0.48196482  0.76833443    -0.38900
N2144       N  0.84056183  0.57282583  0.48521908    -0.38900
N2145       N  0.90644031  0.96369272  0.87071160    -0.38400
N2146       N  0.78326125  0.57427460  0.88663666    -0.38400
C2147       C  0.88204149  0.51795411  0.58273828    -0.05000
C2148       C  0.88611506  0.55568842  0.58676856    -0.02100
C2149       C  0.87148234  0.56522365  0.62216621     0.02900
C2150       C  0.84572713  0.53516958  0.64959181    -0.05000
C2151       C  0.84308145  0.99814004  0.64633545    -0.02100
C2152       C  0.86573018  0.99211926  0.61677134     0.02800
C2153       C  0.90508443  0.58510712  0.55445301     0.37500
C2154       C  0.81799044  0.96617701  0.67373107     0.37500
C2155       C  0.87916593  0.96496912  0.62697705     0.35900
C2156       C  0.88373793  0.60611003  0.63009776     0.35900
N2157       N  0.89140536  0.94453729  0.63615279    -0.38900
N2158       N  0.89483945  0.63899617  0.63669368    -0.38900
N2159       N  0.79729365  0.94014262  0.69474362    -0.38400
N2160       N  0.91897555  0.60896699  0.02873297    -0.38400
C2161       C  0.57371398  0.64093469  0.66069055    -0.05000
C2162       C  0.54844996  0.64230102  0.62792017    -0.02100
C2163       C  0.53386663  0.61470488  0.59403251     0.02900
C2164       C  0.54429703  0.58514756  0.59175625    -0.05000
C2165       C  0.56569722  0.58109709  0.62669774    -0.02100
C2166       C  0.58106194  0.60920031  0.66054417     0.02800
C2167       C  0.54033747  0.67443421  0.62627391     0.37500
C2168       C  0.57270740  0.54849264  0.62724737     0.37500
C2169       C  0.60533513  0.60603693  0.69465825     0.35900
C2170       C  0.01215907  0.62113336  0.55874766     0.35900
N2171       N  0.62527106  0.60446760  0.72192551    -0.38900
N2172       N  0.99715277  0.62713187  0.52947268    -0.38900
N2173       N  0.57758568  0.52194314  0.62848494    -0.38400
N2174       N  0.53386111  0.69999215  0.62452515    -0.38400
C2175       C  0.59762442  0.65705233  0.85798204    -0.05000
C2176       C  0.56915694  0.61715889  0.85535202    -0.02100
C2177       C  0.55567715  0.59539613  0.89264807     0.02900
C2178       C  0.57236521  0.61284953  0.93391666    -0.05000
C2179       C  0.60459979  0.65212463  0.93538907    -0.02100
C2180       C  0.61546074  0.67453204  0.89780230     0.02800
C2181       C  0.55357262  0.59846764  0.81381858     0.37500
C2182       C  0.62892226  0.66958646  0.97377513     0.37500
C2183       C  0.64382878  0.71622244  0.90056821     0.35900
C2184       C  0.02337215  0.55562746  0.88764117     0.35900
N2185       N  0.66606272  0.74955219  0.90372645    -0.38900
N2186       N  0.99750226  0.52362417  0.88331423    -0.38900
N2187       N  0.64966559  0.68458248  0.00343948    -0.38400
N2188       N  0.04061211  0.58495268  0.78090516    -0.38400
C2189       C  0.66848799  0.51925488  0.62888026    -0.05000
C2190       C  0.67475741  0.54477916  0.59428516    -0.02100
C2191       C  0.64867220  0.53192392  0.55787773     0.02900
C2192       C  0.61552892  0.99309508  0.55514362    -0.05000
C2193       C  0.60630913  0.97000898  0.59257555    -0.02100
C2194       C  0.63320523  0.98248892  0.62847716     0.02800
C2195       C  0.70752467  0.58494125  0.59623679     0.37500
C2196       C  0.56796936  0.93533546  0.59671374     0.37500
C2197       C  0.62302869  0.95881490  0.66666457     0.35900
C2198       C  0.65458040  0.56010992  0.52461025     0.35900
N2199       N  0.61469541  0.94021859  0.69729184    -0.38900
N2200       N  0.65961781  0.58287598  0.99836160    -0.38900
N2201       N  0.53725470  0.90834626  0.60227746    -0.38400
N2202       N  0.73282315  0.61738165  0.59740363    -0.38400
C2203       C  0.60559266  0.97887366  0.89262265    -0.05000
C2204       C  0.59649359  0.99163805  0.85329682    -0.02100
C2205       C  0.62402485  0.50617303  0.82038066     0.02900
C2206       C  0.65986090  0.50597196  0.82458926    -0.05000
C2207       C  0.66528782  0.48639022  0.85994228    -0.02100
C2208       C  0.63802369  0.47200475  0.89282448     0.02800
C2209       C  0.55698902  0.98405203  0.84318725     0.37500
C2210       C  0.69883142  0.48048375  0.86272543     0.37500
C2211       C  0.64302420  0.44872434  0.92610659     0.35900
C2212       C  0.61332115  0.51718121  0.77992408     0.35900
N2213       N  0.64742837  0.43039666  0.45254505    -0.38900
N2214       N  0.60397524  0.02448382  0.74708566    -0.38900
N2215       N  0.72503530  0.47491840  0.86513401    -0.38400
N2216       N  0.52538616  0.97741521  0.83392259    -0.38400
C2217       C  0.54421735  0.80258767  0.93562370    -0.05000
C2218       C  0.58306903  0.80824086  0.93808590    -0.02100
C2219       C  0.60066914  0.80568020  0.90091538     0.02900
C2220       C  0.57887599  0.79437876  0.86168735    -0.05000
C2221       C  0.54140166  0.79035946  0.85840881    -0.02100
C2222       C  0.52637704  0.79863903  0.89373906     0.02800
C2223       C  0.60708836  0.82056490  0.97741257     0.37500
C2224       C  0.51962426  0.78123165  0.81742601     0.37500
C2225       C  0.99680519  0.81044010  0.88498748     0.35900
C2226       C  0.64195447  0.81699241  0.90267071     0.35900
N2227       N  0.97425247  0.82042530  0.87695365    -0.38900
N2228       N  0.67524636  0.82743211  0.90439314    -0.38900
N2229       N  0.50217766  0.77390265  0.78494593    -0.38400
N2230       N  0.62700798  0.83044781  0.50831485    -0.38400
C2231       C  0.56608711  0.80602283  0.66661791    -0.05000
C2232       C  0.58927330  0.84185203  0.64459890    -0.02100
C2233       C  0.57415237  0.85019318  0.60673942     0.02900
C2234       C  0.53429625  0.82580404  0.59274782    -0.05000
C2235       C  0.50992049  0.79277511  0.61715075    -0.02100
C2236       C  0.52532267  0.78303519  0.65391867     0.02800
C2237       C  0.62933362  0.87012463  0.65927634     0.37500
C2238       C  0.97032359  0.76716443  0.60204291     0.37500
C2239       C  0.49868793  0.74858421  0.67766623     0.35900
C2240       C  0.60121052  0.88096244  0.57907248     0.35900
N2241       N  0.97754553  0.72263519  0.69710640    -0.38900
N2242       N  0.62291732  0.90496341  0.05670169    -0.38900
N2243       N  0.93897007  0.74475228  0.58890691    -0.38400
N2244       N  0.66125260  0.89299247  0.67069798    -0.38400
C2245       C  0.81370461  0.68089181  0.83961937    -0.05000
C2246       C  0.84663462  0.71936318  0.83840252    -0.02100
C2247       C  0.85488589  0.74648289  0.87186786     0.02900
C2248       C  0.83575912  0.73363553  0.91089512    -0.05000
C2249       C  0.79944508  0.69672291  0.90946046    -0.02100
C2250       C  0.78859088  0.67095814  0.87391959     0.02800
C2251       C  0.87238310  0.73125436  0.80298027     0.37500
C2252       C  0.77084835  0.68521291  0.94198553     0.37500
C2253       C  0.75165972  0.63356877  0.87329250     0.35900
C2254       C  0.88112902  0.78810755  0.86508702     0.35900
N2255       N  0.72209039  0.60399532  0.87289326    -0.38900
N2256       N  0.90105607  0.82147933  0.85948642    -0.38900
N2257       N  0.74718478  0.67376675  0.46729209    -0.38400
N2258       N  0.89353610  0.74067337  0.77524426    -0.38400
C2259       C  0.82507648  0.67999559  0.64308048    -0.05000
C2260       C  0.84007964  0.72078351  0.64712483    -0.02100
C2261       C  0.85813170  0.74608527  0.61251100     0.02900
C2262       C  0.85764949  0.73041321  0.57208305    -0.05000
C2263       C  0.84706559  0.69004582  0.57027374    -0.02100
C2264       C  0.82911303  0.66485819  0.60459961     0.02800
C2265       C  0.83690100  0.73682512  0.68692112     0.37500
C2266       C  0.85832820  0.67497753  0.53498169     0.37500
C2267       C  0.81332900  0.62281606  0.59962497     0.35900
C2268       C  0.88354218  0.78748063  0.62130746     0.35900
N2269       N  0.80015113  0.58926259  0.59539513    -0.38900
N2270       N  0.90629082  0.81997430  0.62957114    -0.38900
N2271       N  0.86730686  0.66300596  0.00688027    -0.38400
N2272       N  0.83380757  0.74974199  0.71833192    -0.38400
loop_ 
_geom_bond_atom_site_label_1 
_geom_bond_atom_site_label_2 
_geom_bond_distance 
_geom_bond_site_symmetry_2 
_ccdc_geom_bond_type 
C1            C2   1.524       .  S
C1            C7   1.535       .  S
C1            C5   1.532       .  S
C1          C260   1.571       .  S
C2            H9   1.078       .  S
C2          C287   1.368       .  D
C3            C4   1.572   1_556  S
C3          C286   1.368       .  D
C3          C347   1.510   1_556  S
C4            C8   1.561       .  S
C4            C6   1.555   1_554  S
C4           H10   1.099       .  S
C5           H11   1.080       .  S
C5          C290   1.376       .  D
C6          C289   1.376       .  D
C6           C15   1.522       .  S
C7          H296   1.072       .  S
C7          C292   1.368       .  D
C8          C291   1.368   1_554  D
C8          C274   1.527       .  S
H12         C291   1.072       .  S
C13          C19   1.511       .  S
C13          C17   1.505       .  S
C13        C1150   1.524   1_455  S
C13         C229   1.549       .  S
C14        C1149   1.525       .  S
C14          H21   1.083       .  S
C14         C299   1.368       .  D
C15        C1152   1.568   1_556  S
C15         C298   1.368       .  D
C16          C20   1.592   1_655  S
C16          C18   1.567   1_654  S
C16        C1151   1.569   1_554  S
C16        H1158   1.108       .  S
C17          H23   1.084       .  S
C17         C302   1.369       .  D
C18         C301   1.369       .  D
C18          C27   1.541       .  S
C19         H308   1.084       .  S
C19         C304   1.371       .  D
C20         C303   1.371       .  D
C20         C246   1.495       .  S
H22        C1152   1.108       .  S
H24         C303   1.084       .  S
C25          C26   1.487       .  S
C25          C29   1.518       .  S
C25         C315   1.560       .  S
C25         C215   1.578       .  S
C26          H33   1.086       .  S
C26         C311   1.375       .  D
C27          C28   1.597   1_556  S
C27         C310   1.375       .  D
C28          C32   1.534       .  S
C28          C30   1.579   1_554  S
C28          H34   1.104       .  S
C29         H603   1.076       .  S
C29         C314   1.388       .  D
C30         C313   1.388       .  D
C30         C607   1.546       .  S
C31         C309   1.560       .  S
C31         H604   1.085       .  S
C31          C32   1.372   1_556  D
C32         C204   1.519       .  S
H35         C597   1.076   1_545  S
H36         C599   1.085   1_545  S
C37          C38   1.492       .  S
C37         C327   1.515       .  S
C37        C1177   1.534       .  S
C37         C190   1.549       .  S
C38          H45   1.087       .  S
C38         C323   1.364       .  D
C39          C40   1.587   1_556  S
C39         C322   1.364       .  D
C39         C598   1.546   1_545  S
C40          C44   1.594       .  S
C40        C1178   1.555   1_454  S
C40        H1750   1.109   1_455  S
C41        C1173   1.534       .  S
C41          H47   1.082       .  S
C41         C326   1.367       .  D
C42        C1176   1.554   1_556  S
C42         C325   1.367       .  D
C42         C619   1.523       .  S
C43         C321   1.515   1_554  S
C43          H48   1.079       .  S
C43          C44   1.377       .  D
C44         C176   1.509       .  S
H46        C1744   1.109       .  S
C49          C55   1.545       .  S
C49          C53   1.530       .  S
C49         C618   1.521       .  S
C49         C716   1.572       .  S
C50         C617   1.521       .  S
C50          H57   1.081       .  S
C50         C903   1.378       .  D
C51          C52   1.565   1_556  S
C51         C902   1.378       .  D
C51         C610   1.523       .  S
C52          C56   1.560       .  S
C52          C54   1.572   1_554  S
C52          H58   1.109       .  S
C53          H59   1.073       .  S
C53         C338   1.359       .  D
C54         C337   1.358       .  D
C54         C350   1.496   1_556  S
C55         H912   1.078       .  S
C55         C340   1.362       .  D
C56         C339   1.363       .  D
C56         C727   1.523       .  S
H60         C907   1.078       .  S
C61          C62   1.554       .  S
C61          C67   1.537       .  S
C61          C65   1.521       .  S
C61         C117   1.545       .  S
C62          H69   1.085       .  S
C62         C347   1.375       .  D
C63          C64   1.560       .  S
C63         C346   1.375       .  D
C63         C287   1.510       .  S
C64          C68   1.554       .  S
C64          C66   1.561       .  S
C64          H70   1.111       .  S
C65          H71   1.080       .  S
C65         C350   1.358       .  D
C66         C349   1.358       .  D
C66         C338   1.496       .  S
C67         H356   1.086       .  S
C67         C352   1.352   1_554  D
C68         C351   1.352       .  D
C68         C134   1.499       .  S
H72         C351   1.086       .  S
Fe73         O89   2.104       .  S
Fe73         O79   2.053       .  S
Fe73         O86   2.051       .  S
Fe73         O78   2.083       .  S
Fe73         O84   1.982       .  S
Fe74         O77   2.085       .  S
Fe74         O81   2.046       .  S
Fe74         O85   2.059       .  S
Fe74         O90   2.033       .  S
Fe74         O84   1.970       .  S
Fe75         O93   2.070       .  S
Fe75         O80   2.070       .  S
Fe75         O87   2.078       .  S
Fe75         O76   2.041       .  S
Fe75         O84   1.970       .  S
O76          C83   1.262       .  A
O77          C91   1.273       .  A
O78          C83   1.268       .  A
O79          C82   1.270       .  A
O80          C92   1.267       .  A
O81          C94   1.265       .  A
C82          O87   1.275       .  A
C82         C120   1.476       .  S
C83         C131   1.505       .  S
O85          C88   1.269       .  A
O86          C88   1.265       .  A
C88         C187   1.471       .  S
O89          C94   1.275       .  A
O90          C92   1.261       .  A
C91          O93   1.270       .  A
C91         C243   1.521       .  S
C92         C232   1.475       .  S
C94         C173   1.508       .  S
Fe95        O111   2.075       .  S
Fe95        O101   2.060       .  S
Fe95        O108   2.057       .  S
Fe95        O100   2.085       .  S
Fe95        O106   1.982       .  S
Fe96         O99   2.096       .  S
Fe96        O103   2.102       .  S
Fe96        O107   2.094       .  S
Fe96        O112   2.098       .  S
Fe96        O106   1.990       .  S
Fe97        O115   2.056       .  S
Fe97        O102   2.093       .  S
Fe97        O109   2.091       .  S
Fe97         O98   2.061       .  S
Fe97        O106   1.988       .  S
O98         C105   1.266       .  A
O99         C113   1.274       .  A
O100        C105   1.270       .  A
O101        C104   1.269       .  A
O102        C114   1.276       .  A
O103        C116   1.276       .  A
C104        O109   1.274       .  A
C104        C271   1.486       .  S
C105        C257   1.497       .  S
O107        C110   1.273       .  A
O108        C110   1.270       .  A
C110        C145   1.489       .  S
O111        C116   1.270       .  A
O112        C114   1.277       .  A
C113        O115   1.265       .  A
C113        C201   1.498       .  S
C114        C218   1.514       .  S
C116        C162   1.513       .  S
C117        C118   1.426       .  A
C117        C122   1.414       .  A
C118        C119   1.407       .  A
C118        C123   1.452       .  S
C119        C120   1.405       .  A
C119        C126   1.450       .  S
C120        C121   1.411       .  A
C121        C122   1.411       .  A
C121        C124   1.452       .  S
C122        C125   1.444       .  S
C123        N414   1.157       .  T
C124        N129   1.157       .  T
C125        N127   1.156       .  T
C126        N128   1.157       .  T
N130        C407   1.157       .  T
C131        C132   1.424       .  A
C131        C136   1.422       .  A
C132        C133   1.410       .  A
C132        C137   1.454       .  S
C133        C134   1.408       .  A
C133        C140   1.449       .  S
C134        C135   1.408       .  A
C135        C136   1.411       .  A
C135        C138   1.449       .  S
C136        C139   1.451       .  S
C137        N144   1.158       .  T
C138        N143   1.156       .  T
C139        N141   1.158       .  T
C140        N142   1.158       .  T
C145        C146   1.401       .  A
C145        C150   1.407       .  A
C146        C147   1.412       .  A
C146        C151   1.456       .  S
C147        C148   1.437       .  A
C147        C154   1.446       .  S
C148        C617   1.573       .  S
C148        C717   1.433   1_545  A
C149        C716   1.433       .  A
C149        C718   1.420       .  A
C149        C152   1.452       .  S
C150        C717   1.420   1_545  A
C150        C153   1.449   1_545  S
C151        N158   1.157       .  T
C152        N157   1.158       .  T
C153        N155   1.156       .  T
C154        N440   1.157       .  T
N156        C438   1.157       .  T
C159        C624   1.523       .  S
C159        C160   1.420       .  A
C159        C732   1.409   1_545  A
C160        C161   1.417       .  A
C160        C165   1.448       .  S
C161        C162   1.420       .  A
C161        C168   1.451       .  S
C162        C731   1.419   1_545  A
C163        C164   1.420       .  A
C163        C730   1.419       .  A
C163        C166   1.448       .  S
C164        C727   1.409       .  A
C164        C167   1.441       .  S
C165        N456   1.157       .  T
C166        N171   1.157       .  T
C167        N169   1.156       .  T
C168        N170   1.158       .  T
N172        C449   1.157       .  T
C173        C174   1.418       .  A
C173        C178   1.420       .  A
C174        C175   1.412       .  A
C174        C179   1.454       .  S
C175        C176   1.421       .  A
C175       C1318   1.450       .  S
C176        C177   1.409       .  A
C177        C178   1.422       .  A
C177        C180   1.444       .  S
C178        C181   1.448       .  S
C179        N186   1.157       .  T
C180        N185   1.155       .  T
C181        N183   1.157       .  T
C182       C1311   1.450       .  S
C182        N184   1.156       .  T
C187        C188   1.396       .  A
C187        C192   1.410       .  A
C188        C189   1.401       .  A
C188        C193   1.456       .  S
C189        C190   1.440       .  A
C189       C1332   1.455       .  S
C190        C191   1.420       .  A
C191        C192   1.413       .  A
C191        C194   1.447       .  S
C192        C195   1.447       .  S
C193       N1336   1.157       .  T
C194        N199   1.158       .  T
C195        N197   1.155       .  T
C196       C1325   1.455       .  S
C196        N198   1.157       .  T
N200       C1329   1.157       .  T
C201        C202   1.415       .  A
C201        C774   1.411   1_545  A
C202        C203   1.414       .  A
C202        C207   1.450       .  S
C203        C772   1.422   1_545  A
C203        C210   1.453       .  S
C204        C205   1.422       .  A
C204        C771   1.422       .  A
C205        C206   1.419       .  A
C205        C208   1.446       .  S
C206        C769   1.411       .  A
C206        C209   1.452       .  S
C207        N214   1.157       .  T
C208        N213   1.157       .  T
C209        N211   1.157       .  T
C210        N496   1.158   1_554  T
N212        C494   1.158       .  T
C215        C216   1.426       .  A
C215        C788   1.431       .  A
C216        C785   1.426       .  A
C216        C221   1.447       .  S
C217        C218   1.415       .  A
C217        C784   1.426   1_545  A
C217        C224   1.450       .  S
C218        C219   1.413   1_545  A
C219        C220   1.420       .  A
C219        C222   1.451       .  S
C220        C783   1.431       .  A
C220        C223   1.453       .  S
C221        N228   1.157       .  T
C222        N227   1.157       .  T
C223        N509   1.158       .  T
C224        N794   1.157       .  T
N225        C507   1.158       .  T
N226        C792   1.157       .  T
C229        C230   1.428       .  A
C229        C234   1.436       .  A
C230        C231   1.417       .  A
C230        C235   1.449       .  S
C231        C232   1.409       .  A
C231        C238   1.450       .  S
C232        C233   1.400       .  A
C233        C234   1.400       .  A
C233        C236   1.456       .  S
C234       C1373   1.452   1_455  S
C235        N526   1.158       .  T
C236        N241   1.157       .  T
C237       C1370   1.452       .  S
C237        N239   1.156       .  T
C238        N240   1.157       .  T
N242        C519   1.158   1_554  T
C243        C244   1.427       .  A
C243        C248   1.426       .  A
C244        C245   1.414       .  A
C244        C249   1.452       .  S
C245        C246   1.414       .  A
C245        C252   1.454       .  S
C246        C247   1.408       .  A
C247        C248   1.417       .  A
C247       C1386   1.446   1_455  S
C248        C251   1.452   1_455  S
C249        N256   1.158       .  T
C250       C1383   1.447       .  S
C250        N255   1.155       .  T
C251       N1389   1.158       .  T
C252        N538   1.158       .  T
N253       C1387   1.158       .  T
N254        C536   1.158       .  T
C257        C258   1.412       .  A
C257        C262   1.412       .  A
C258        C259   1.415       .  A
C258        C263   1.449       .  S
C259        C260   1.420       .  A
C259        C266   1.449       .  S
C260        C261   1.433       .  A
C261        C262   1.418       .  A
C261        C264   1.449       .  S
C262        C265   1.455       .  S
C263        N270   1.157       .  T
C264        N553   1.158       .  T
C265        N267   1.158       .  T
C266        N268   1.157       .  T
N269        C548   1.158       .  T
C271        C272   1.410       .  A
C271        C276   1.407       .  A
C272        C273   1.418       .  A
C272        C277   1.449       .  S
C273        C274   1.417       .  A
C273        C280   1.441       .  S
C274        C275   1.428       .  A
C275        C276   1.408       .  A
C275        C278   1.453       .  S
C276        C279   1.454       .  S
C277        N284   1.157       .  T
C278        N567   1.157       .  T
C279        N281   1.158       .  T
C280        N282   1.156       .  T
N283        C562   1.157       .  T
C285        C286   1.524       .  S
C285        C291   1.535       .  S
C285        C289   1.532       .  S
C285        C544   1.571       .  S
C286        H293   1.078       .  S
C287        C288   1.572       .  S
C288        C292   1.561       .  S
C288        C290   1.555       .  S
C288        H294   1.099       .  S
C289        H295   1.080       .  S
C290        C299   1.522       .  S
C292        C558   1.527       .  S
C297       C1434   1.524   1_455  S
C297        C303   1.511   1_556  S
C297        C301   1.505       .  S
C297        C513   1.549       .  S
C298       C1433   1.525       .  S
C298        H305   1.083       .  S
C299       C1436   1.568       .  S
C300       C1435   1.569       .  S
C300        C304   1.592   1_655  S
C300        C302   1.567   1_655  S
C300       H1442   1.108       .  S
C301        H307   1.084       .  S
C302        C311   1.541       .  S
C304        C530   1.495       .  S
H306       C1436   1.108       .  S
C309        C310   1.487       .  S
C309        C313   1.518       .  S
C309        C499   1.578       .  S
C310        H317   1.086       .  S
C311        C312   1.597       .  S
C312        C316   1.534       .  S
C312        C314   1.579       .  S
C312        H318   1.104       .  S
C313        H887   1.076       .  S
C314        C891   1.546       .  S
C315        H888   1.085       .  S
C315        C316   1.372       .  D
C316        C488   1.519       .  S
H319        C881   1.076   1_545  S
H320        C883   1.085   1_545  S
C321        C322   1.492       .  S
C321       C1461   1.534       .  S
C321        C474   1.549       .  S
C322        H329   1.087       .  S
C323        C324   1.587       .  S
C323        C882   1.546   1_545  S
C324        C328   1.594       .  S
C324       C1462   1.555   1_455  S
C324       H2034   1.109   1_455  S
C325       C1457   1.534       .  S
C325        H331   1.082       .  S
C326       C1460   1.554       .  S
C326        C903   1.523       .  S
C327        H332   1.079       .  S
C327        C328   1.377       .  D
C328        C460   1.509       .  S
H330       C2028   1.109       .  S
C333        C902   1.521       .  S
C333        C339   1.545   1_556  S
C333        C337   1.530       .  S
C333       C1000   1.572       .  S
C334        C901   1.521       .  S
C334        H341   1.081       .  S
C334        C619   1.378       .  D
C335        C336   1.565       .  S
C335        C618   1.378       .  D
C335        C894   1.523       .  S
C336        C340   1.560       .  S
C336        C338   1.572       .  S
C336        H342   1.109       .  S
C337        H343   1.073       .  S
C339        H628   1.078       .  S
C340       C1011   1.523       .  S
H344        C623   1.078       .  S
C345        C346   1.554       .  S
C345        C351   1.537       .  S
C345        C349   1.521       .  S
C345        C401   1.545       .  S
C346        H353   1.085       .  S
C347        C348   1.560   1_554  S
C348        C352   1.554       .  S
C348        C350   1.562   1_556  S
C348        H354   1.111       .  S
C349        H355   1.080       .  S
C352        C418   1.499       .  S
Fe357       O373   2.104       .  S
Fe357       O363   2.053       .  S
Fe357       O370   2.051       .  S
Fe357       O362   2.083       .  S
Fe357       O368   1.982       .  S
Fe358       O361   2.085       .  S
Fe358       O365   2.046       .  S
Fe358       O369   2.060       .  S
Fe358       O374   2.032       .  S
Fe358       O368   1.970       .  S
Fe359       O377   2.070       .  S
Fe359       O364   2.070       .  S
Fe359       O371   2.078       .  S
Fe359       O360   2.041       .  S
Fe359       O368   1.970       .  S
O360        C367   1.262       .  A
O361        C375   1.273       .  A
O362        C367   1.268       .  A
O363        C366   1.270       .  A
O364        C376   1.267       .  A
O365        C378   1.265       .  A
C366        O371   1.275       .  A
C366        C404   1.476       .  S
C367        C415   1.505       .  S
O369        C372   1.269       .  A
O370        C372   1.265       .  A
C372        C471   1.471       .  S
O373        C378   1.275       .  A
O374        C376   1.261       .  A
C375        O377   1.270       .  A
C375        C527   1.521       .  S
C376        C516   1.475       .  S
C378        C457   1.508       .  S
Fe379       O395   2.075       .  S
Fe379       O385   2.060       .  S
Fe379       O392   2.057       .  S
Fe379       O384   2.085       .  S
Fe379       O390   1.982       .  S
Fe380       O383   2.096       .  S
Fe380       O387   2.102       .  S
Fe380       O391   2.094       .  S
Fe380       O396   2.098       .  S
Fe380       O390   1.990       .  S
Fe381       O399   2.056       .  S
Fe381       O386   2.093       .  S
Fe381       O393   2.091       .  S
Fe381       O382   2.061       .  S
Fe381       O390   1.988       .  S
O382        C389   1.266       .  A
O383        C397   1.274       .  A
O384        C389   1.270       .  A
O385        C388   1.269       .  A
O386        C398   1.276       .  A
O387        C400   1.276       .  A
C388        O393   1.274       .  A
C388        C555   1.486       .  S
C389        C541   1.497       .  S
O391        C394   1.273       .  A
O392        C394   1.270       .  A
C394        C429   1.489       .  S
O395        C400   1.270       .  A
O396        C398   1.277       .  A
C397        O399   1.265       .  A
C397        C485   1.498       .  S
C398        C502   1.514       .  S
C400        C446   1.513       .  S
C401        C402   1.426       .  A
C401        C406   1.414       .  A
C402        C403   1.407       .  A
C402        C407   1.452       .  S
C403        C404   1.405       .  A
C403        C410   1.450       .  S
C404        C405   1.411       .  A
C405        C406   1.411       .  A
C405        C408   1.452       .  S
C406        C409   1.444       .  S
C408        N413   1.157       .  T
C409        N411   1.156       .  T
C410        N412   1.157       .  T
C415        C416   1.424       .  A
C415        C420   1.422       .  A
C416        C417   1.410       .  A
C416        C421   1.454       .  S
C417        C418   1.408       .  A
C417        C424   1.449       .  S
C418        C419   1.408       .  A
C419        C420   1.411       .  A
C419        C422   1.449       .  S
C420        C423   1.451       .  S
C421        N428   1.158       .  T
C422        N427   1.156       .  T
C423        N425   1.158       .  T
C424        N426   1.158       .  T
C429        C430   1.401       .  A
C429        C434   1.407       .  A
C430        C431   1.412       .  A
C430        C435   1.456       .  S
C431        C432   1.437       .  A
C431        C438   1.446       .  S
C432        C901   1.573       .  S
C432       C1001   1.433   1_545  A
C433       C1000   1.433       .  A
C433       C1002   1.420       .  A
C433        C436   1.452       .  S
C434       C1001   1.420   1_545  A
C434        C437   1.449   1_545  S
C435        N442   1.157       .  T
C436        N441   1.158       .  T
C437        N439   1.156       .  T
C443        C908   1.523       .  S
C443        C444   1.420       .  A
C443       C1016   1.409   1_545  A
C444        C445   1.417       .  A
C444        C449   1.448       .  S
C445        C446   1.420       .  A
C445        C452   1.451       .  S
C446       C1015   1.419   1_545  A
C447       C1014   1.419       .  A
C447        C448   1.420       .  A
C447        C450   1.448       .  S
C448       C1011   1.409       .  A
C448        C451   1.441       .  S
C450        N455   1.157       .  T
C451        N453   1.156       .  T
C452        N454   1.158       .  T
C457        C458   1.418       .  A
C457        C462   1.420       .  A
C458        C459   1.412       .  A
C458        C463   1.454       .  S
C459        C460   1.421       .  A
C459       C1602   1.450       .  S
C460        C461   1.409       .  A
C461        C462   1.422       .  A
C461        C464   1.444       .  S
C462        C465   1.448       .  S
C463        N470   1.157       .  T
C464        N469   1.155       .  T
C465        N467   1.157       .  T
C466       C1595   1.450       .  S
C466        N468   1.156       .  T
C471        C472   1.396       .  A
C471        C476   1.410       .  A
C472        C473   1.401       .  A
C472        C477   1.456       .  S
C473        C474   1.440       .  A
C473       C1616   1.455       .  S
C474        C475   1.420       .  A
C475        C476   1.413       .  A
C475        C478   1.447       .  S
C476        C479   1.447       .  S
C477       N1620   1.157       .  T
C478        N483   1.158   1_556  T
C479        N481   1.155       .  T
C480       C1609   1.455       .  S
C480        N482   1.157       .  T
N484       C1613   1.157       .  T
C485        C486   1.415       .  A
C485       C1058   1.411   1_545  A
C486        C487   1.414       .  A
C486        C491   1.450       .  S
C487       C1056   1.422   1_545  A
C487        C494   1.453       .  S
C488       C1055   1.422       .  A
C488        C489   1.422       .  A
C489        C490   1.419       .  A
C489        C492   1.446       .  S
C490       C1053   1.411       .  A
C490        C493   1.452       .  S
C491        N498   1.157       .  T
C492        N497   1.157       .  T
C493        N495   1.157       .  T
C499        C500   1.426       .  A
C499       C1072   1.431       .  A
C500       C1069   1.426       .  A
C500        C505   1.447       .  S
C501       C1068   1.426   1_545  A
C501        C502   1.415       .  A
C501        C508   1.450       .  S
C502        C503   1.413   1_545  A
C503        C504   1.420       .  A
C503        C506   1.451       .  S
C504       C1067   1.431       .  A
C504        C507   1.453       .  S
C505        N512   1.157       .  T
C506        N511   1.157       .  T
C508       N1078   1.157       .  T
N510       C1076   1.157       .  T
C513        C514   1.428       .  A
C513        C518   1.436       .  A
C514        C515   1.417       .  A
C514        C519   1.449       .  S
C515        C516   1.409       .  A
C515        C522   1.450       .  S
C516        C517   1.400       .  A
C517        C518   1.400       .  A
C517        C520   1.456       .  S
C518       C1657   1.452   1_455  S
C520        N525   1.157       .  T
C521       C1654   1.452       .  S
C521        N523   1.156       .  T
C522        N524   1.157       .  T
C527        C528   1.427       .  A
C527        C532   1.426       .  A
C528        C529   1.414       .  A
C528        C533   1.452       .  S
C529        C530   1.414       .  A
C529        C536   1.454       .  S
C530        C531   1.408       .  A
C531        C532   1.417       .  A
C531       C1670   1.446   1_455  S
C532        C535   1.452   1_455  S
C533        N540   1.158       .  T
C534       C1667   1.447       .  S
C534        N539   1.155       .  T
C535       N1673   1.158       .  T
N537       C1671   1.158       .  T
C541        C542   1.412       .  A
C541        C546   1.412       .  A
C542        C543   1.415       .  A
C542        C547   1.449       .  S
C543        C544   1.420       .  A
C543        C550   1.450       .  S
C544        C545   1.433       .  A
C545        C546   1.418       .  A
C545        C548   1.449       .  S
C546        C549   1.455       .  S
C547        N554   1.157       .  T
C549        N551   1.158       .  T
C550        N552   1.157       .  T
C555        C556   1.410       .  A
C555        C560   1.407       .  A
C556        C557   1.418       .  A
C556        C561   1.449       .  S
C557        C558   1.417       .  A
C557        C564   1.441       .  S
C558        C559   1.428       .  A
C559        C560   1.408       .  A
C559        C562   1.453       .  S
C560        C563   1.454       .  S
C561        N568   1.157       .  T
C563        N565   1.158       .  T
C564        N566   1.156       .  T
C569        C570   1.525       .  S
C569        C575   1.535       .  S
C569        C573   1.532       .  S
C569        C828   1.571       .  S
C570        H577   1.078       .  S
C570        C855   1.368       .  D
C571        C572   1.572   1_556  S
C571        C854   1.368       .  D
C571        C915   1.510   1_556  S
C572        C576   1.561       .  S
C572        C574   1.555   1_554  S
C572        H578   1.099       .  S
C573        H579   1.080       .  S
C573        C858   1.376       .  D
C574        C857   1.376       .  D
C574        C583   1.522       .  S
C575        H864   1.072       .  S
C575        C860   1.368       .  D
C576        C859   1.368   1_554  D
C576        C842   1.527       .  S
H580        C859   1.072       .  S
C581       C1718   1.524   1_455  S
C581        C587   1.511       .  S
C581        C585   1.505       .  S
C581        C797   1.549       .  S
C582       C1717   1.525       .  S
C582        H589   1.083       .  S
C582        C867   1.368       .  D
C583       C1720   1.568   1_556  S
C583        C866   1.368       .  D
C584       C1719   1.569   1_554  S
C584        C588   1.592   1_655  S
C584        C586   1.567   1_654  S
C584       H1726   1.108       .  S
C585        H591   1.084       .  S
C585        C870   1.369       .  D
C586        C869   1.369       .  D
C586        C595   1.541       .  S
C587        H876   1.084       .  S
C587        C872   1.371       .  D
C588        C871   1.371       .  D
C588        C814   1.495       .  S
H590       C1720   1.108       .  S
H592        C871   1.084       .  S
C593        C594   1.487       .  S
C593        C883   1.560       .  S
C593        C597   1.518       .  S
C593        C783   1.578       .  S
C594        H601   1.086       .  S
C594        C879   1.375       .  D
C595        C596   1.597   1_556  S
C595        C878   1.375       .  D
C596        C600   1.535       .  S
C596        C598   1.579   1_554  S
C596        H602   1.104       .  S
C597        C882   1.387       .  D
C598        C881   1.387       .  D
C599        C877   1.560       .  S
C599        C600   1.372   1_556  D
C600        C772   1.520       .  S
C605        C606   1.492       .  S
C605        C895   1.515       .  S
C605       C1745   1.534       .  S
C605        C758   1.549       .  S
C606        H613   1.087       .  S
C606        C891   1.364       .  D
C607        C608   1.587   1_556  S
C607        C890   1.364       .  D
C608        C612   1.594       .  S
C608       C1746   1.555   1_454  S
C608       H1182   1.109   1_455  S
C609       C1741   1.534       .  S
C609        H615   1.082       .  S
C609        C894   1.367       .  D
C610       C1744   1.554   1_556  S
C610        C893   1.367       .  D
C611        C889   1.515   1_554  S
C611        H616   1.079       .  S
C611        C612   1.377       .  D
C612        C744   1.510       .  S
H614       C1176   1.109       .  S
C617        C623   1.544       .  S
C617        C621   1.530   1_545  S
C618        H625   1.081       .  S
C619        C620   1.565   1_546  S
C620        C624   1.560   1_565  S
C620        C622   1.572       .  S
C620        H626   1.109       .  S
C621        H627   1.074       .  S
C621        C906   1.359       .  D
C622        C905   1.359   1_554  D
C622        C918   1.496       .  S
C623        C908   1.362       .  D
C624        C907   1.362       .  D
C629        C630   1.554       .  S
C629        C635   1.537       .  S
C629        C633   1.521       .  S
C629        C685   1.545       .  S
C630        H637   1.085       .  S
C630        C915   1.375       .  D
C631        C632   1.560       .  S
C631        C914   1.375       .  D
C631        C855   1.510       .  S
C632        C636   1.554       .  S
C632        C634   1.561       .  S
C632        H638   1.111       .  S
C633        H639   1.080       .  S
C633        C918   1.358       .  D
C634        C917   1.358       .  D
C634        C906   1.496       .  S
C635        H924   1.086       .  S
C635        C920   1.352   1_554  D
C636        C919   1.352       .  D
C636        C702   1.499       .  S
H640        C919   1.086       .  S
Fe641       O657   2.105       .  S
Fe641       O647   2.053       .  S
Fe641       O654   2.051       .  S
Fe641       O646   2.083       .  S
Fe641       O652   1.983       .  S
Fe642       O645   2.085       .  S
Fe642       O649   2.046       .  S
Fe642       O653   2.059       .  S
Fe642       O658   2.032       .  S
Fe642       O652   1.971       .  S
Fe643       O661   2.070       .  S
Fe643       O648   2.071       .  S
Fe643       O655   2.078       .  S
Fe643       O644   2.041       .  S
Fe643       O652   1.970       .  S
O644        C651   1.262       .  A
O645        C659   1.273       .  A
O646        C651   1.268       .  A
O647        C650   1.270       .  A
O648        C660   1.267       .  A
O649        C662   1.265       .  A
C650        O655   1.275       .  A
C650        C688   1.477       .  S
C651        C699   1.505       .  S
O653        C656   1.269       .  A
O654        C656   1.265       .  A
C656        C755   1.471       .  S
O657        C662   1.275       .  A
O658        C660   1.261       .  A
C659        O661   1.270       .  A
C659        C811   1.521       .  S
C660        C800   1.475       .  S
C662        C741   1.508       .  S
Fe663       O679   2.075       .  S
Fe663       O669   2.060       .  S
Fe663       O676   2.057       .  S
Fe663       O668   2.085       .  S
Fe663       O674   1.981       .  S
Fe664       O667   2.096       .  S
Fe664       O671   2.102       .  S
Fe664       O675   2.094       .  S
Fe664       O680   2.098       .  S
Fe664       O674   1.990       .  S
Fe665       O683   2.056       .  S
Fe665       O670   2.093       .  S
Fe665       O677   2.091       .  S
Fe665       O666   2.061       .  S
Fe665       O674   1.988       .  S
O666        C673   1.266       .  A
O667        C681   1.274       .  A
O668        C673   1.270       .  A
O669        C672   1.269       .  A
O670        C682   1.276       .  A
O671        C684   1.276       .  A
C672        O677   1.274       .  A
C672        C839   1.486       .  S
C673        C825   1.497       .  S
O675        C678   1.273       .  A
O676        C678   1.270       .  A
C678        C713   1.489       .  S
O679        C684   1.270       .  A
O680        C682   1.277       .  A
C681        O683   1.265       .  A
C681        C769   1.498       .  S
C682        C786   1.514       .  S
C684        C730   1.513       .  S
C685        C686   1.426       .  A
C685        C690   1.414       .  A
C686        C687   1.407       .  A
C686        C691   1.452       .  S
C687        C688   1.405       .  A
C687        C694   1.450       .  S
C688        C689   1.411       .  A
C689        C690   1.411       .  A
C689        C692   1.452       .  S
C690        C693   1.444       .  S
C691        N982   1.157       .  T
C692        N697   1.157       .  T
C693        N695   1.156       .  T
C694        N696   1.157       .  T
N698        C975   1.157       .  T
C699        C700   1.424       .  A
C699        C704   1.422       .  A
C700        C701   1.410       .  A
C700        C705   1.454       .  S
C701        C702   1.408       .  A
C701        C708   1.449       .  S
C702        C703   1.408       .  A
C703        C704   1.411       .  A
C703        C706   1.449       .  S
C704        C707   1.451       .  S
C705        N712   1.158       .  T
C706        N711   1.156       .  T
C707        N709   1.158       .  T
C708        N710   1.158       .  T
C713        C714   1.401       .  A
C713        C718   1.407       .  A
C714        C715   1.412       .  A
C714        C719   1.456       .  S
C715        C716   1.437       .  A
C715        C722   1.446       .  S
C717        C720   1.452       .  S
C718        C721   1.449       .  S
C719        N726   1.157       .  T
C720        N725   1.158       .  T
C721        N723   1.156       .  T
C722       N1008   1.157       .  T
N724       C1006   1.157       .  T
C727        C728   1.420       .  A
C728        C729   1.417       .  A
C728        C733   1.448       .  S
C729        C730   1.420       .  A
C729        C736   1.451       .  S
C731        C732   1.420       .  A
C731        C734   1.448       .  S
C732        C735   1.441       .  S
C733       N1024   1.156       .  T
C734        N739   1.157       .  T
C735        N737   1.156       .  T
C736        N738   1.158       .  T
N740       C1017   1.156       .  T
C741        C742   1.418       .  A
C741        C746   1.420       .  A
C742        C743   1.412       .  A
C742        C747   1.454       .  S
C743        C744   1.421       .  A
C743       C1886   1.450       .  S
C744        C745   1.409       .  A
C745        C746   1.422       .  A
C745        C748   1.444       .  S
C746        C749   1.448       .  S
C747        N754   1.157       .  T
C748        N753   1.155       .  T
C749        N751   1.157       .  T
C750       C1879   1.450       .  S
C750        N752   1.156       .  T
C755        C756   1.396       .  A
C755        C760   1.410       .  A
C756        C757   1.401       .  A
C756        C761   1.456       .  S
C757        C758   1.440       .  A
C757       C1900   1.455       .  S
C758        C759   1.420       .  A
C759        C760   1.413       .  A
C759        C762   1.447       .  S
C760        C763   1.447       .  S
C761       N1904   1.157       .  T
C762        N767   1.158       .  T
C763        N765   1.155       .  T
C764       C1893   1.455       .  S
C764        N766   1.157       .  T
N768       C1897   1.157       .  T
C769        C770   1.415       .  A
C770        C771   1.414       .  A
C770        C775   1.450       .  S
C771        C778   1.453       .  S
C772        C773   1.422       .  A
C773        C774   1.419       .  A
C773        C776   1.446       .  S
C774        C777   1.452       .  S
C775        N782   1.157       .  T
C776        N781   1.157       .  T
C777        N779   1.157       .  T
C778       N1064   1.158   1_554  T
N780       C1062   1.158       .  T
C783        C784   1.426       .  A
C784        C789   1.447       .  S
C785        C786   1.415       .  A
C785        C792   1.450       .  S
C786        C787   1.413       .  A
C787        C788   1.420       .  A
C787        C790   1.450       .  S
C788        C791   1.453       .  S
C789        N796   1.157       .  T
C790        N795   1.157       .  T
C791       N1077   1.158       .  T
N793       C1075   1.158       .  T
C797        C798   1.428       .  A
C797        C802   1.435       .  A
C798        C799   1.417       .  A
C798        C803   1.449       .  S
C799        C800   1.409       .  A
C799        C806   1.450       .  S
C800        C801   1.400       .  A
C801        C802   1.400       .  A
C801        C804   1.456       .  S
C802       C1941   1.452   1_455  S
C803       N1094   1.158       .  T
C804        N809   1.157       .  T
C805       C1938   1.452       .  S
C805        N807   1.156       .  T
C806        N808   1.157       .  T
N810       C1087   1.158   1_554  T
C811        C812   1.427       .  A
C811        C816   1.426       .  A
C812        C813   1.414       .  A
C812        C817   1.452       .  S
C813        C814   1.414       .  A
C813        C820   1.454       .  S
C814        C815   1.408       .  A
C815        C816   1.417       .  A
C815       C1954   1.446   1_455  S
C816        C819   1.452   1_455  S
C817        N824   1.158       .  T
C818       C1951   1.447       .  S
C818        N823   1.155       .  T
C819       N1957   1.158       .  T
C820       N1106   1.158       .  T
N821       C1955   1.158       .  T
N822       C1104   1.158       .  T
C825        C826   1.412       .  A
C825        C830   1.411       .  A
C826        C827   1.415       .  A
C826        C831   1.449       .  S
C827        C828   1.420       .  A
C827        C834   1.449       .  S
C828        C829   1.433       .  A
C829        C830   1.418       .  A
C829        C832   1.449       .  S
C830        C833   1.455       .  S
C831        N838   1.157       .  T
C832       N1121   1.158       .  T
C833        N835   1.158       .  T
C834        N836   1.157       .  T
N837       C1116   1.158       .  T
C839        C840   1.410       .  A
C839        C844   1.407       .  A
C840        C841   1.418       .  A
C840        C845   1.449       .  S
C841        C842   1.417       .  A
C841        C848   1.441       .  S
C842        C843   1.428       .  A
C843        C844   1.408       .  A
C843        C846   1.453       .  S
C844        C847   1.454       .  S
C845        N852   1.157       .  T
C846       N1135   1.157       .  T
C847        N849   1.158       .  T
C848        N850   1.156       .  T
N851       C1130   1.157       .  T
C853        C854   1.525       .  S
C853        C859   1.535       .  S
C853        C857   1.532       .  S
C853       C1112   1.571       .  S
C854        H861   1.078       .  S
C855        C856   1.572       .  S
C856        C860   1.561       .  S
C856        C858   1.555       .  S
C856        H862   1.099       .  S
C857        H863   1.080       .  S
C858        C867   1.522       .  S
C860       C1126   1.527       .  S
C865       C2002   1.524   1_455  S
C865        C871   1.511   1_556  S
C865        C869   1.505       .  S
C865       C1081   1.549       .  S
C866       C2001   1.525       .  S
C866        H873   1.083       .  S
C867       C2004   1.568       .  S
C868       C2003   1.569       .  S
C868        C872   1.592   1_655  S
C868        C870   1.567   1_655  S
C868       H2010   1.108       .  S
C869        H875   1.084       .  S
C870        C879   1.541       .  S
C872       C1098   1.495       .  S
H874       C2004   1.108       .  S
C877        C878   1.487       .  S
C877        C881   1.518       .  S
C877       C1067   1.578       .  S
C878        H885   1.086       .  S
C879        C880   1.597       .  S
C880        C884   1.535       .  S
C880        C882   1.579       .  S
C880        H886   1.104       .  S
C883        C884   1.372       .  D
C884       C1056   1.520       .  S
C889        C890   1.492       .  S
C889       C2029   1.534       .  S
C889       C1042   1.549       .  S
C890        H897   1.087       .  S
C891        C892   1.587       .  S
C892        C896   1.594       .  S
C892       C2030   1.555   1_455  S
C892       H1466   1.109   1_455  S
C893       C2025   1.534       .  S
C893        H899   1.082       .  S
C894       C2028   1.554       .  S
C895        H900   1.079       .  S
C895        C896   1.377       .  D
C896       C1028   1.510       .  S
H898       C1460   1.109       .  S
C901        C907   1.544   1_556  S
C901        C905   1.530   1_545  S
C902        H909   1.081       .  S
C903        C904   1.565   1_545  S
C904        C908   1.560   1_565  S
C904        C906   1.572       .  S
C904        H910   1.109       .  S
C905        H911   1.074       .  S
C913        C914   1.554       .  S
C913        C919   1.537       .  S
C913        C917   1.521       .  S
C913        C969   1.545       .  S
C914        H921   1.085       .  S
C915        C916   1.560   1_554  S
C916        C920   1.554       .  S
C916        C918   1.561   1_556  S
C916        H922   1.111       .  S
C917        H923   1.079       .  S
C920        C986   1.499       .  S
Fe925       O941   2.105       .  S
Fe925       O931   2.053       .  S
Fe925       O938   2.051       .  S
Fe925       O930   2.082       .  S
Fe925       O936   1.983       .  S
Fe926       O929   2.085       .  S
Fe926       O933   2.046       .  S
Fe926       O937   2.059       .  S
Fe926       O942   2.032       .  S
Fe926       O936   1.971       .  S
Fe927       O945   2.070       .  S
Fe927       O932   2.071       .  S
Fe927       O939   2.078       .  S
Fe927       O928   2.041       .  S
Fe927       O936   1.970       .  S
O928        C935   1.262       .  A
O929        C943   1.273       .  A
O930        C935   1.268       .  A
O931        C934   1.270       .  A
O932        C944   1.267       .  A
O933        C946   1.265       .  A
C934        O939   1.275       .  A
C934        C972   1.477       .  S
C935        C983   1.505       .  S
O937        C940   1.269       .  A
O938        C940   1.265       .  A
C940       C1039   1.471       .  S
O941        C946   1.275       .  A
O942        C944   1.261       .  A
C943        O945   1.270       .  A
C943       C1095   1.521       .  S
C944       C1084   1.475       .  S
C946       C1025   1.508       .  S
Fe947       O963   2.075       .  S
Fe947       O953   2.060       .  S
Fe947       O960   2.057       .  S
Fe947       O952   2.085       .  S
Fe947       O958   1.981       .  S
Fe948       O951   2.096       .  S
Fe948       O955   2.102       .  S
Fe948       O959   2.094       .  S
Fe948       O964   2.098       .  S
Fe948       O958   1.990       .  S
Fe949       O967   2.056       .  S
Fe949       O954   2.093       .  S
Fe949       O961   2.091       .  S
Fe949       O950   2.061       .  S
Fe949       O958   1.988       .  S
O950        C957   1.266       .  A
O951        C965   1.274       .  A
O952        C957   1.270       .  A
O953        C956   1.269       .  A
O954        C966   1.276       .  A
O955        C968   1.276       .  A
C956        O961   1.274       .  A
C956       C1123   1.486       .  S
C957       C1109   1.497       .  S
O959        C962   1.273       .  A
O960        C962   1.270       .  A
C962        C997   1.489       .  S
O963        C968   1.270       .  A
O964        C966   1.277       .  A
C965        O967   1.265       .  A
C965       C1053   1.498       .  S
C966       C1070   1.514       .  S
C968       C1014   1.513       .  S
C969        C970   1.426       .  A
C969        C974   1.414       .  A
C970        C971   1.407       .  A
C970        C975   1.452       .  S
C971        C972   1.405       .  A
C971        C978   1.450       .  S
C972        C973   1.411       .  A
C973        C974   1.411       .  A
C973        C976   1.452       .  S
C974        C977   1.444       .  S
C976        N981   1.157       .  T
C977        N979   1.156       .  T
C978        N980   1.157       .  T
C983        C984   1.424       .  A
C983        C988   1.422       .  A
C984        C985   1.410       .  A
C984        C989   1.454       .  S
C985        C986   1.408       .  A
C985        C992   1.449       .  S
C986        C987   1.408       .  A
C987        C988   1.411       .  A
C987        C990   1.449       .  S
C988        C991   1.451       .  S
C989        N996   1.158       .  T
C990        N995   1.156       .  T
C991        N993   1.158       .  T
C992        N994   1.158       .  T
C997        C998   1.401       .  A
C997       C1002   1.407       .  A
C998        C999   1.412       .  A
C998       C1003   1.456       .  S
C999       C1000   1.436       .  A
C999       C1006   1.446       .  S
C1001      C1004   1.452       .  S
C1002      C1005   1.449       .  S
C1003      N1010   1.156       .  T
C1004      N1009   1.158       .  T
C1005      N1007   1.156       .  T
C1011      C1012   1.420       .  A
C1012      C1013   1.417       .  A
C1012      C1017   1.448       .  S
C1013      C1014   1.420       .  A
C1013      C1020   1.451       .  S
C1015      C1016   1.420       .  A
C1015      C1018   1.448       .  S
C1016      C1019   1.441       .  S
C1018      N1023   1.157       .  T
C1019      N1021   1.156       .  T
C1020      N1022   1.158       .  T
C1025      C1026   1.418       .  A
C1025      C1030   1.420       .  A
C1026      C1027   1.412       .  A
C1026      C1031   1.454       .  S
C1027      C1028   1.421       .  A
C1027      C2170   1.450       .  S
C1028      C1029   1.409       .  A
C1029      C1030   1.422       .  A
C1029      C1032   1.444       .  S
C1030      C1033   1.448       .  S
C1031      N1038   1.157       .  T
C1032      N1037   1.155       .  T
C1033      N1035   1.157       .  T
C1034      C2163   1.450       .  S
C1034      N1036   1.156       .  T
C1039      C1040   1.396       .  A
C1039      C1044   1.410       .  A
C1040      C1041   1.401       .  A
C1040      C1045   1.456       .  S
C1041      C1042   1.440       .  A
C1041      C2184   1.455       .  S
C1042      C1043   1.420       .  A
C1043      C1044   1.413       .  A
C1043      C1046   1.447       .  S
C1044      C1047   1.447       .  S
C1045      N2188   1.157       .  T
C1046      N1051   1.158   1_556  T
C1047      N1049   1.155       .  T
C1048      C2177   1.455       .  S
C1048      N1050   1.157       .  T
N1052      C2181   1.157       .  T
C1053      C1054   1.415       .  A
C1054      C1055   1.414       .  A
C1054      C1059   1.450       .  S
C1055      C1062   1.453       .  S
C1056      C1057   1.422       .  A
C1057      C1058   1.419       .  A
C1057      C1060   1.446       .  S
C1058      C1061   1.452       .  S
C1059      N1066   1.157       .  T
C1060      N1065   1.157       .  T
C1061      N1063   1.157       .  T
C1067      C1068   1.426       .  A
C1068      C1073   1.447       .  S
C1069      C1070   1.415       .  A
C1069      C1076   1.450       .  S
C1070      C1071   1.413       .  A
C1071      C1072   1.420       .  A
C1071      C1074   1.450       .  S
C1072      C1075   1.453       .  S
C1073      N1080   1.157       .  T
C1074      N1079   1.157       .  T
C1081      C1082   1.428       .  A
C1081      C1086   1.435       .  A
C1082      C1083   1.417       .  A
C1082      C1087   1.449       .  S
C1083      C1084   1.409       .  A
C1083      C1090   1.450       .  S
C1084      C1085   1.400       .  A
C1085      C1086   1.400       .  A
C1085      C1088   1.456       .  S
C1086      C2225   1.452   1_455  S
C1088      N1093   1.157       .  T
C1089      C2222   1.452       .  S
C1089      N1091   1.156       .  T
C1090      N1092   1.157       .  T
C1095      C1096   1.427       .  A
C1095      C1100   1.426       .  A
C1096      C1097   1.414       .  A
C1096      C1101   1.452       .  S
C1097      C1098   1.414       .  A
C1097      C1104   1.454       .  S
C1098      C1099   1.408       .  A
C1099      C1100   1.417       .  A
C1099      C2238   1.446   1_455  S
C1100      C1103   1.452   1_455  S
C1101      N1108   1.158       .  T
C1102      C2235   1.447       .  S
C1102      N1107   1.155       .  T
C1103      N2241   1.158       .  T
N1105      C2239   1.158       .  T
C1109      C1110   1.412       .  A
C1109      C1114   1.411       .  A
C1110      C1111   1.415       .  A
C1110      C1115   1.449       .  S
C1111      C1112   1.420       .  A
C1111      C1118   1.449       .  S
C1112      C1113   1.433       .  A
C1113      C1114   1.418       .  A
C1113      C1116   1.449       .  S
C1114      C1117   1.455       .  S
C1115      N1122   1.157       .  T
C1117      N1119   1.158       .  T
C1118      N1120   1.157       .  T
C1123      C1124   1.410       .  A
C1123      C1128   1.407       .  A
C1124      C1125   1.418       .  A
C1124      C1129   1.449       .  S
C1125      C1126   1.417       .  A
C1125      C1132   1.441       .  S
C1126      C1127   1.428       .  A
C1127      C1128   1.408       .  A
C1127      C1130   1.453       .  S
C1128      C1131   1.454       .  S
C1129      N1136   1.157       .  T
C1131      N1133   1.158       .  T
C1132      N1134   1.156       .  T
C1137      C1138   1.524       .  S
C1137      C1143   1.535       .  S
C1137      C1141   1.532       .  S
C1137      C1396   1.571       .  S
C1138      H1145   1.078       .  S
C1138      C1423   1.368       .  D
C1139      C1140   1.571   1_556  S
C1139      C1422   1.368       .  D
C1139      C1483   1.509   1_556  S
C1140      C1144   1.561       .  S
C1140      C1142   1.554   1_554  S
C1140      H1146   1.100       .  S
C1141      H1147   1.080       .  S
C1141      C1426   1.377       .  D
C1142      C1425   1.377       .  D
C1142      C1151   1.522       .  S
C1143      H1432   1.073       .  S
C1143      C1428   1.368       .  D
C1144      C1427   1.368   1_554  D
C1144      C1410   1.526       .  S
H1148      C1427   1.073       .  S
C1149      C1155   1.511       .  S
C1149      C1153   1.504       .  S
C1149      C1365   1.549       .  S
C1150      H1157   1.083       .  S
C1150      C1435   1.367       .  D
C1151      C1434   1.367       .  D
C1152      C1156   1.592       .  S
C1152      C1154   1.567   1_554  S
C1153      H1159   1.084       .  S
C1153      C1438   1.369       .  D
C1154      C1437   1.369       .  D
C1154      C1163   1.540       .  S
C1155      H1444   1.084       .  S
C1155      C1440   1.370       .  D
C1156      C1439   1.370       .  D
C1156      C1382   1.494       .  S
H1160      C1439   1.084       .  S
C1161      C1162   1.487       .  S
C1161      C1451   1.560       .  S
C1161      C1165   1.518       .  S
C1161      C1351   1.578       .  S
C1162      H1169   1.086       .  S
C1162      C1447   1.375       .  D
C1163      C1164   1.596   1_556  S
C1163      C1446   1.375       .  D
C1164      C1168   1.534       .  S
C1164      C1166   1.578   1_554  S
C1164      H1170   1.104       .  S
C1165      H1739   1.076       .  S
C1165      C1450   1.387       .  D
C1166      C1449   1.387       .  D
C1166      C1743   1.545       .  S
C1167      C1445   1.560       .  S
C1167      H1740   1.085       .  S
C1167      C1168   1.373   1_556  D
C1168      C1340   1.519       .  S
H1171      C1733   1.076   1_545  S
H1172      C1735   1.085   1_545  S
C1173      C1174   1.492       .  S
C1173      C1463   1.515       .  S
C1173      C1326   1.549       .  S
C1174      H1181   1.087       .  S
C1174      C1459   1.365       .  D
C1175      C1176   1.586   1_556  S
C1175      C1458   1.365       .  D
C1175      C1734   1.545   1_545  S
C1176      C1180   1.593       .  S
C1177      H1183   1.082   1_455  S
C1177      C1462   1.367   1_455  D
C1178      C1461   1.367   1_655  D
C1178      C1755   1.523       .  S
C1179      C1457   1.515   1_554  S
C1179      H1184   1.078       .  S
C1179      C1180   1.377       .  D
C1180      C1312   1.508       .  S
C1185      C1754   1.523       .  S
C1185      C1191   1.544       .  S
C1185      C1189   1.530       .  S
C1185      C1852   1.572       .  S
C1186      C1753   1.522       .  S
C1186      H1193   1.081       .  S
C1186      C2039   1.378       .  D
C1187      C1188   1.564   1_556  S
C1187      C2038   1.378       .  D
C1187      C1746   1.523       .  S
C1188      C1192   1.558       .  S
C1188      C1190   1.573   1_554  S
C1188      H1194   1.109       .  S
C1189      H1195   1.074       .  S
C1189      C1474   1.359       .  D
C1190      C1473   1.359       .  D
C1190      C1486   1.496   1_556  S
C1191      H2048   1.077       .  S
C1191      C1476   1.361       .  D
C1192      C1475   1.361       .  D
C1192      C1863   1.521       .  S
H1196      C2043   1.077       .  S
C1197      C1198   1.553       .  S
C1197      C1203   1.537       .  S
C1197      C1201   1.521       .  S
C1197      C1253   1.545       .  S
C1198      H1205   1.085       .  S
C1198      C1483   1.374       .  D
C1199      C1200   1.560       .  S
C1199      C1482   1.374       .  D
C1199      C1423   1.509       .  S
C1200      C1204   1.553       .  S
C1200      C1202   1.561       .  S
C1200      H1206   1.111       .  S
C1201      H1207   1.079       .  S
C1201      C1486   1.358       .  D
C1202      C1485   1.358       .  D
C1202      C1474   1.496       .  S
C1203      H1492   1.086       .  S
C1203      C1488   1.352   1_554  D
C1204      C1487   1.352       .  D
C1204      C1270   1.498       .  S
H1208      C1487   1.086       .  S
Fe1209     O1225   2.101       .  S
Fe1209     O1215   2.053       .  S
Fe1209     O1222   2.051       .  S
Fe1209     O1214   2.080       .  S
Fe1209     O1220   1.984       .  S
Fe1210     O1213   2.085       .  S
Fe1210     O1217   2.046       .  S
Fe1210     O1221   2.059       .  S
Fe1210     O1226   2.033       .  S
Fe1210     O1220   1.972       .  S
Fe1211     O1229   2.071       .  S
Fe1211     O1216   2.070       .  S
Fe1211     O1223   2.077       .  S
Fe1211     O1212   2.042       .  S
Fe1211     O1220   1.970       .  S
O1212      C1219   1.263       .  A
O1213      C1227   1.273       .  A
O1214      C1219   1.268       .  A
O1215      C1218   1.270       .  A
O1216      C1228   1.267       .  A
O1217      C1230   1.265       .  A
C1218      O1223   1.274       .  A
C1218      C1256   1.476       .  S
C1219      C1267   1.504       .  S
O1221      C1224   1.269       .  A
O1222      C1224   1.266       .  A
C1224      C1323   1.470       .  S
O1225      C1230   1.274       .  A
O1226      C1228   1.261       .  A
C1227      O1229   1.270       .  A
C1227      C1379   1.521       .  S
C1228      C1368   1.475       .  S
C1230      C1309   1.506       .  S
Fe1231     O1247   2.074       .  S
Fe1231     O1237   2.059       .  S
Fe1231     O1244   2.057       .  S
Fe1231     O1236   2.085       .  S
Fe1231     O1242   1.981       .  S
Fe1232     O1235   2.094       .  S
Fe1232     O1239   2.100       .  S
Fe1232     O1243   2.091       .  S
Fe1232     O1248   2.097       .  S
Fe1232     O1242   1.989       .  S
Fe1233     O1251   2.056       .  S
Fe1233     O1238   2.093       .  S
Fe1233     O1245   2.091       .  S
Fe1233     O1234   2.063       .  S
Fe1233     O1242   1.987       .  S
O1234      C1241   1.266       .  A
O1235      C1249   1.274       .  A
O1236      C1241   1.270       .  A
O1237      C1240   1.269       .  A
O1238      C1250   1.276       .  A
O1239      C1252   1.275       .  A
C1240      O1245   1.274       .  A
C1240      C1407   1.486       .  S
C1241      C1393   1.498       .  S
O1243      C1246   1.273       .  A
O1244      C1246   1.270       .  A
C1246      C1281   1.487       .  S
O1247      C1252   1.269       .  A
O1248      C1250   1.277       .  A
C1249      O1251   1.265       .  A
C1249      C1337   1.497       .  S
C1250      C1354   1.514       .  S
C1252      C1298   1.512       .  S
C1253      C1254   1.425       .  A
C1253      C1258   1.414       .  A
C1254      C1255   1.407       .  A
C1254      C1259   1.452       .  S
C1255      C1256   1.405       .  A
C1255      C1262   1.450       .  S
C1256      C1257   1.411       .  A
C1257      C1258   1.410       .  A
C1257      C1260   1.452       .  S
C1258      C1261   1.444       .  S
C1259      N1550   1.157       .  T
C1260      N1265   1.157       .  T
C1261      N1263   1.156       .  T
C1262      N1264   1.157       .  T
N1266      C1543   1.157       .  T
C1267      C1268   1.424       .  A
C1267      C1272   1.422       .  A
C1268      C1269   1.409       .  A
C1268      C1273   1.454       .  S
C1269      C1270   1.408       .  A
C1269      C1276   1.449       .  S
C1270      C1271   1.409       .  A
C1271      C1272   1.411       .  A
C1271      C1274   1.449       .  S
C1272      C1275   1.451       .  S
C1273      N1280   1.158       .  T
C1274      N1279   1.156       .  T
C1275      N1277   1.158       .  T
C1276      N1278   1.158       .  T
C1281      C1282   1.401       .  A
C1281      C1286   1.406       .  A
C1282      C1283   1.412       .  A
C1282      C1287   1.456       .  S
C1283      C1284   1.438       .  A
C1283      C1290   1.447       .  S
C1284      C1753   1.572       .  S
C1284      C1853   1.434   1_545  A
C1285      C1852   1.434       .  A
C1285      C1854   1.419       .  A
C1285      C1288   1.452       .  S
C1286      C1853   1.419   1_545  A
C1286      C1289   1.450   1_545  S
C1287      N1294   1.156       .  T
C1288      N1293   1.157       .  T
C1289      N1291   1.157       .  T
C1290      N1576   1.157       .  T
N1292      C1574   1.157       .  T
C1295      C1760   1.521       .  S
C1295      C1296   1.420       .  A
C1295      C1868   1.408   1_545  A
C1296      C1297   1.416       .  A
C1296      C1301   1.448       .  S
C1297      C1298   1.419       .  A
C1297      C1304   1.451       .  S
C1298      C1867   1.419   1_545  A
C1299      C1866   1.419       .  A
C1299      C1300   1.420       .  A
C1299      C1302   1.448       .  S
C1300      C1863   1.409       .  A
C1300      C1303   1.440       .  S
C1301      N1592   1.157       .  T
C1302      N1307   1.158       .  T
C1303      N1305   1.156       .  T
C1304      N1306   1.158       .  T
N1308      C1585   1.157       .  T
C1309      C1310   1.417       .  A
C1309      C1314   1.419       .  A
C1310      C1311   1.411       .  A
C1310      C1315   1.454       .  S
C1311      C1312   1.421       .  A
C1312      C1313   1.409       .  A
C1313      C1314   1.421       .  A
C1313      C1316   1.444       .  S
C1314      C1317   1.449       .  S
C1315      N1322   1.157       .  T
C1316      N1321   1.155       .  T
C1317      N1319   1.157       .  T
C1318      N1320   1.156   1_455  T
C1323      C1324   1.395       .  A
C1323      C1328   1.410       .  A
C1324      C1325   1.401       .  A
C1324      C1329   1.456       .  S
C1325      C1326   1.441       .  A
C1326      C1327   1.421       .  A
C1327      C1328   1.413       .  A
C1327      C1330   1.447       .  S
C1328      C1331   1.447       .  S
C1330      N1335   1.158       .  T
C1331      N1333   1.155       .  T
C1332      N1334   1.157   1_455  T
C1337      C1338   1.414       .  A
C1337      C1910   1.411   1_545  A
C1338      C1339   1.414       .  A
C1338      C1343   1.450       .  S
C1339      C1908   1.421   1_545  A
C1339      C1346   1.453       .  S
C1340      C1907   1.421       .  A
C1340      C1341   1.422       .  A
C1341      C1342   1.419       .  A
C1341      C1344   1.446       .  S
C1342      C1905   1.411       .  A
C1342      C1345   1.452       .  S
C1343      N1350   1.157       .  T
C1344      N1349   1.157       .  T
C1345      N1347   1.157       .  T
C1346      N1632   1.158   1_554  T
N1348      C1630   1.158       .  T
C1351      C1352   1.426       .  A
C1351      C1924   1.431       .  A
C1352      C1921   1.425       .  A
C1352      C1357   1.447       .  S
C1353      C1920   1.425   1_545  A
C1353      C1354   1.415       .  A
C1353      C1360   1.450       .  S
C1354      C1355   1.413   1_545  A
C1355      C1356   1.420       .  A
C1355      C1358   1.451       .  S
C1356      C1919   1.431       .  A
C1356      C1359   1.453       .  S
C1357      N1364   1.157       .  T
C1358      N1363   1.157       .  T
C1359      N1645   1.158       .  T
C1360      N1930   1.157       .  T
N1361      C1643   1.158       .  T
N1362      C1928   1.157       .  T
C1365      C1366   1.428       .  A
C1365      C1370   1.435       .  A
C1366      C1367   1.417       .  A
C1366      C1371   1.449       .  S
C1367      C1368   1.409       .  A
C1367      C1374   1.450       .  S
C1368      C1369   1.401       .  A
C1369      C1370   1.400       .  A
C1369      C1372   1.456       .  S
C1371      N1662   1.158       .  T
C1372      N1377   1.157       .  T
C1373      N1375   1.156       .  T
C1374      N1376   1.157       .  T
N1378      C1655   1.158   1_554  T
C1379      C1380   1.427       .  A
C1379      C1384   1.426       .  A
C1380      C1381   1.414       .  A
C1380      C1385   1.452       .  S
C1381      C1382   1.414       .  A
C1381      C1388   1.454       .  S
C1382      C1383   1.408       .  A
C1383      C1384   1.417       .  A
C1384      C1387   1.451       .  S
C1385      N1392   1.158       .  T
C1386      N1391   1.155       .  T
C1388      N1674   1.158       .  T
N1390      C1672   1.158       .  T
C1393      C1394   1.413       .  A
C1393      C1398   1.412       .  A
C1394      C1395   1.415       .  A
C1394      C1399   1.449       .  S
C1395      C1396   1.419       .  A
C1395      C1402   1.449       .  S
C1396      C1397   1.433       .  A
C1397      C1398   1.418       .  A
C1397      C1400   1.449       .  S
C1398      C1401   1.455       .  S
C1399      N1406   1.157       .  T
C1400      N1689   1.158       .  T
C1401      N1403   1.158       .  T
C1402      N1404   1.157       .  T
N1405      C1684   1.158       .  T
C1407      C1408   1.410       .  A
C1407      C1412   1.407       .  A
C1408      C1409   1.418       .  A
C1408      C1413   1.449       .  S
C1409      C1410   1.417       .  A
C1409      C1416   1.440       .  S
C1410      C1411   1.427       .  A
C1411      C1412   1.408       .  A
C1411      C1414   1.454       .  S
C1412      C1415   1.453       .  S
C1413      N1420   1.157       .  T
C1414      N1703   1.157       .  T
C1415      N1417   1.158       .  T
C1416      N1418   1.156       .  T
N1419      C1698   1.157       .  T
C1421      C1422   1.524       .  S
C1421      C1427   1.535       .  S
C1421      C1425   1.532       .  S
C1421      C1680   1.571       .  S
C1422      H1429   1.078       .  S
C1423      C1424   1.571       .  S
C1424      C1428   1.561       .  S
C1424      C1426   1.554       .  S
C1424      H1430   1.100       .  S
C1425      H1431   1.080       .  S
C1426      C1435   1.522       .  S
C1428      C1694   1.526       .  S
C1433      C1439   1.511   1_556  S
C1433      C1437   1.504       .  S
C1433      C1649   1.549       .  S
C1434      H1441   1.083       .  S
C1436      C1440   1.592       .  S
C1436      C1438   1.567       .  S
C1437      H1443   1.084       .  S
C1438      C1447   1.540       .  S
C1440      C1666   1.495       .  S
C1445      C1446   1.487       .  S
C1445      C1449   1.518       .  S
C1445      C1635   1.578       .  S
C1446      H1453   1.086       .  S
C1447      C1448   1.596       .  S
C1448      C1452   1.534       .  S
C1448      C1450   1.578       .  S
C1448      H1454   1.104       .  S
C1449      H2023   1.076       .  S
C1450      C2027   1.545       .  S
C1451      H2024   1.085       .  S
C1451      C1452   1.373       .  D
C1452      C1624   1.519       .  S
H1455      C2017   1.076   1_545  S
H1456      C2019   1.085   1_545  S
C1457      C1458   1.492       .  S
C1457      C1610   1.549       .  S
C1458      H1465   1.087       .  S
C1459      C1460   1.586       .  S
C1459      C2018   1.545   1_545  S
C1460      C1464   1.593       .  S
C1461      H1467   1.082   1_455  S
C1462      C2039   1.523       .  S
C1463      H1468   1.078       .  S
C1463      C1464   1.377       .  D
C1464      C1596   1.508       .  S
C1469      C2038   1.523       .  S
C1469      C1475   1.544   1_556  S
C1469      C1473   1.530       .  S
C1469      C2136   1.572       .  S
C1470      C2037   1.522       .  S
C1470      H1477   1.081       .  S
C1470      C1755   1.379       .  D
C1471      C1472   1.564       .  S
C1471      C1754   1.378       .  D
C1471      C2030   1.523       .  S
C1472      C1476   1.558       .  S
C1472      C1474   1.573       .  S
C1472      H1478   1.109       .  S
C1473      H1479   1.074       .  S
C1475      H1764   1.077       .  S
C1476      C2147   1.521       .  S
H1480      C1759   1.077       .  S
C1481      C1482   1.553       .  S
C1481      C1487   1.537       .  S
C1481      C1485   1.521       .  S
C1481      C1537   1.545       .  S
C1482      H1489   1.085       .  S
C1483      C1484   1.560   1_554  S
C1484      C1488   1.553       .  S
C1484      C1486   1.561   1_556  S
C1484      H1490   1.111       .  S
C1485      H1491   1.079       .  S
C1488      C1554   1.498       .  S
Fe1493     O1509   2.101       .  S
Fe1493     O1499   2.053       .  S
Fe1493     O1506   2.052       .  S
Fe1493     O1498   2.080       .  S
Fe1493     O1504   1.984       .  S
Fe1494     O1497   2.085       .  S
Fe1494     O1501   2.046       .  S
Fe1494     O1505   2.059       .  S
Fe1494     O1510   2.033       .  S
Fe1494     O1504   1.972       .  S
Fe1495     O1513   2.071       .  S
Fe1495     O1500   2.069       .  S
Fe1495     O1507   2.077       .  S
Fe1495     O1496   2.042       .  S
Fe1495     O1504   1.970       .  S
O1496      C1503   1.263       .  A
O1497      C1511   1.273       .  A
O1498      C1503   1.268       .  A
O1499      C1502   1.270       .  A
O1500      C1512   1.267       .  A
O1501      C1514   1.265       .  A
C1502      O1507   1.274       .  A
C1502      C1540   1.476       .  S
C1503      C1551   1.504       .  S
O1505      C1508   1.269       .  A
O1506      C1508   1.266       .  A
C1508      C1607   1.470       .  S
O1509      C1514   1.274       .  A
O1510      C1512   1.261       .  A
C1511      O1513   1.270       .  A
C1511      C1663   1.521       .  S
C1512      C1652   1.475       .  S
C1514      C1593   1.506       .  S
Fe1515     O1531   2.074       .  S
Fe1515     O1521   2.059       .  S
Fe1515     O1528   2.057       .  S
Fe1515     O1520   2.085       .  S
Fe1515     O1526   1.981       .  S
Fe1516     O1519   2.094       .  S
Fe1516     O1523   2.100       .  S
Fe1516     O1527   2.091       .  S
Fe1516     O1532   2.097       .  S
Fe1516     O1526   1.989       .  S
Fe1517     O1535   2.056       .  S
Fe1517     O1522   2.093       .  S
Fe1517     O1529   2.091       .  S
Fe1517     O1518   2.063       .  S
Fe1517     O1526   1.987       .  S
O1518      C1525   1.266       .  A
O1519      C1533   1.274       .  A
O1520      C1525   1.270       .  A
O1521      C1524   1.269       .  A
O1522      C1534   1.276       .  A
O1523      C1536   1.275       .  A
C1524      O1529   1.274       .  A
C1524      C1691   1.486       .  S
C1525      C1677   1.498       .  S
O1527      C1530   1.273       .  A
O1528      C1530   1.270       .  A
C1530      C1565   1.487       .  S
O1531      C1536   1.269       .  A
O1532      C1534   1.277       .  A
C1533      O1535   1.265       .  A
C1533      C1621   1.497       .  S
C1534      C1638   1.514       .  S
C1536      C1582   1.512       .  S
C1537      C1538   1.425       .  A
C1537      C1542   1.414       .  A
C1538      C1539   1.407       .  A
C1538      C1543   1.452       .  S
C1539      C1540   1.405       .  A
C1539      C1546   1.450       .  S
C1540      C1541   1.411       .  A
C1541      C1542   1.410       .  A
C1541      C1544   1.452       .  S
C1542      C1545   1.444       .  S
C1544      N1549   1.157       .  T
C1545      N1547   1.156       .  T
C1546      N1548   1.157       .  T
C1551      C1552   1.424       .  A
C1551      C1556   1.422       .  A
C1552      C1553   1.409       .  A
C1552      C1557   1.454       .  S
C1553      C1554   1.408       .  A
C1553      C1560   1.449       .  S
C1554      C1555   1.409       .  A
C1555      C1556   1.411       .  A
C1555      C1558   1.449       .  S
C1556      C1559   1.451       .  S
C1557      N1564   1.158       .  T
C1558      N1563   1.156       .  T
C1559      N1561   1.158       .  T
C1560      N1562   1.158       .  T
C1565      C1566   1.401       .  A
C1565      C1570   1.406       .  A
C1566      C1567   1.412       .  A
C1566      C1571   1.456       .  S
C1567      C1568   1.438       .  A
C1567      C1574   1.446       .  S
C1568      C2037   1.572       .  S
C1568      C2137   1.433   1_545  A
C1569      C2136   1.434       .  A
C1569      C2138   1.419       .  A
C1569      C1572   1.452       .  S
C1570      C2137   1.419   1_545  A
C1570      C1573   1.450   1_545  S
C1571      N1578   1.156       .  T
C1572      N1577   1.157       .  T
C1573      N1575   1.157       .  T
C1579      C2044   1.521       .  S
C1579      C1580   1.420       .  A
C1579      C2152   1.408   1_545  A
C1580      C1581   1.416       .  A
C1580      C1585   1.448       .  S
C1581      C1582   1.419       .  A
C1581      C1588   1.451       .  S
C1582      C2151   1.419   1_545  A
C1583      C2150   1.419       .  A
C1583      C1584   1.420       .  A
C1583      C1586   1.448       .  S
C1584      C2147   1.409       .  A
C1584      C1587   1.440       .  S
C1586      N1591   1.158       .  T
C1587      N1589   1.156       .  T
C1588      N1590   1.158       .  T
C1593      C1594   1.417       .  A
C1593      C1598   1.419       .  A
C1594      C1595   1.411       .  A
C1594      C1599   1.454       .  S
C1595      C1596   1.421       .  A
C1596      C1597   1.409       .  A
C1597      C1598   1.421       .  A
C1597      C1600   1.444       .  S
C1598      C1601   1.449       .  S
C1599      N1606   1.157       .  T
C1600      N1605   1.155       .  T
C1601      N1603   1.157       .  T
C1602      N1604   1.156   1_455  T
C1607      C1608   1.395       .  A
C1607      C1612   1.410       .  A
C1608      C1609   1.401       .  A
C1608      C1613   1.456       .  S
C1609      C1610   1.441       .  A
C1610      C1611   1.421       .  A
C1611      C1612   1.413       .  A
C1611      C1614   1.447       .  S
C1612      C1615   1.447       .  S
C1614      N1619   1.158   1_556  T
C1615      N1617   1.155       .  T
C1616      N1618   1.157   1_455  T
C1621      C1622   1.414       .  A
C1621      C2194   1.411   1_545  A
C1622      C1623   1.414       .  A
C1622      C1627   1.450       .  S
C1623      C2192   1.421   1_545  A
C1623      C1630   1.453       .  S
C1624      C2191   1.421       .  A
C1624      C1625   1.422       .  A
C1625      C1626   1.419       .  A
C1625      C1628   1.446       .  S
C1626      C2189   1.411       .  A
C1626      C1629   1.452       .  S
C1627      N1634   1.157       .  T
C1628      N1633   1.157       .  T
C1629      N1631   1.157       .  T
C1635      C1636   1.426       .  A
C1635      C2208   1.431       .  A
C1636      C2205   1.425       .  A
C1636      C1641   1.447       .  S
C1637      C2204   1.425   1_545  A
C1637      C1638   1.415       .  A
C1637      C1644   1.450       .  S
C1638      C1639   1.413   1_545  A
C1639      C1640   1.420       .  A
C1639      C1642   1.451       .  S
C1640      C2203   1.431       .  A
C1640      C1643   1.453       .  S
C1641      N1648   1.157       .  T
C1642      N1647   1.157       .  T
C1644      N2214   1.157       .  T
N1646      C2212   1.157       .  T
C1649      C1650   1.428       .  A
C1649      C1654   1.435       .  A
C1650      C1651   1.417       .  A
C1650      C1655   1.449       .  S
C1651      C1652   1.409       .  A
C1651      C1658   1.450       .  S
C1652      C1653   1.401       .  A
C1653      C1654   1.400       .  A
C1653      C1656   1.456       .  S
C1656      N1661   1.157       .  T
C1657      N1659   1.156       .  T
C1658      N1660   1.157       .  T
C1663      C1664   1.427       .  A
C1663      C1668   1.426       .  A
C1664      C1665   1.414       .  A
C1664      C1669   1.452       .  S
C1665      C1666   1.414       .  A
C1665      C1672   1.454       .  S
C1666      C1667   1.408       .  A
C1667      C1668   1.417       .  A
C1668      C1671   1.451       .  S
C1669      N1676   1.158       .  T
C1670      N1675   1.155       .  T
C1677      C1678   1.413       .  A
C1677      C1682   1.412       .  A
C1678      C1679   1.415       .  A
C1678      C1683   1.449       .  S
C1679      C1680   1.419       .  A
C1679      C1686   1.449       .  S
C1680      C1681   1.433       .  A
C1681      C1682   1.418       .  A
C1681      C1684   1.449       .  S
C1682      C1685   1.455       .  S
C1683      N1690   1.157       .  T
C1685      N1687   1.158       .  T
C1686      N1688   1.157       .  T
C1691      C1692   1.410       .  A
C1691      C1696   1.407       .  A
C1692      C1693   1.418       .  A
C1692      C1697   1.449       .  S
C1693      C1694   1.417       .  A
C1693      C1700   1.440       .  S
C1694      C1695   1.427       .  A
C1695      C1696   1.408       .  A
C1695      C1698   1.454       .  S
C1696      C1699   1.453       .  S
C1697      N1704   1.157       .  T
C1699      N1701   1.158       .  T
C1700      N1702   1.156       .  T
C1705      C1706   1.524       .  S
C1705      C1711   1.535       .  S
C1705      C1709   1.532       .  S
C1705      C1964   1.571       .  S
C1706      H1713   1.078       .  S
C1706      C1991   1.368       .  D
C1707      C1708   1.571   1_556  S
C1707      C1990   1.368       .  D
C1707      C2051   1.509   1_556  S
C1708      C1712   1.561       .  S
C1708      C1710   1.554   1_554  S
C1708      H1714   1.100       .  S
C1709      H1715   1.080       .  S
C1709      C1994   1.377       .  D
C1710      C1993   1.377       .  D
C1710      C1719   1.522       .  S
C1711      H2000   1.073       .  S
C1711      C1996   1.368       .  D
C1712      C1995   1.368   1_554  D
C1712      C1978   1.526       .  S
H1716      C1995   1.073       .  S
C1717      C1723   1.511       .  S
C1717      C1721   1.504       .  S
C1717      C1933   1.549       .  S
C1718      H1725   1.083       .  S
C1718      C2003   1.367       .  D
C1719      C2002   1.367       .  D
C1720      C1724   1.592       .  S
C1720      C1722   1.567   1_554  S
C1721      H1727   1.084       .  S
C1721      C2006   1.369       .  D
C1722      C2005   1.369       .  D
C1722      C1731   1.540       .  S
C1723      H2012   1.084       .  S
C1723      C2008   1.370       .  D
C1724      C2007   1.370       .  D
C1724      C1950   1.495       .  S
H1728      C2007   1.084       .  S
C1729      C1730   1.487       .  S
C1729      C2019   1.560       .  S
C1729      C1733   1.518       .  S
C1729      C1919   1.578       .  S
C1730      H1737   1.086       .  S
C1730      C2015   1.375       .  D
C1731      C1732   1.596   1_556  S
C1731      C2014   1.375       .  D
C1732      C1736   1.534       .  S
C1732      C1734   1.578   1_554  S
C1732      H1738   1.104       .  S
C1733      C2018   1.387       .  D
C1734      C2017   1.387       .  D
C1735      C2013   1.560       .  S
C1735      C1736   1.373   1_556  D
C1736      C1908   1.519       .  S
C1741      C1742   1.492       .  S
C1741      C2031   1.515       .  S
C1741      C1894   1.549       .  S
C1742      H1749   1.087       .  S
C1742      C2027   1.365       .  D
C1743      C1744   1.586   1_556  S
C1743      C2026   1.365       .  D
C1744      C1748   1.593       .  S
C1745      H1751   1.082   1_455  S
C1745      C2030   1.367   1_455  D
C1746      C2029   1.367   1_655  D
C1747      C2025   1.515   1_554  S
C1747      H1752   1.078       .  S
C1747      C1748   1.377       .  D
C1748      C1880   1.508       .  S
C1753      C1759   1.544       .  S
C1753      C1757   1.530   1_545  S
C1754      H1761   1.081       .  S
C1755      C1756   1.564   1_546  S
C1756      C1760   1.558   1_565  S
C1756      C1758   1.573   1_554  S
C1756      H1762   1.109       .  S
C1757      H1763   1.074       .  S
C1757      C2042   1.359       .  D
C1758      C2041   1.359       .  D
C1758      C2054   1.496   1_556  S
C1759      C2044   1.361       .  D
C1760      C2043   1.361       .  D
C1765      C1766   1.553       .  S
C1765      C1771   1.537       .  S
C1765      C1769   1.521       .  S
C1765      C1821   1.545       .  S
C1766      H1773   1.085       .  S
C1766      C2051   1.374       .  D
C1767      C1768   1.560       .  S
C1767      C2050   1.374       .  D
C1767      C1991   1.509       .  S
C1768      C1772   1.554       .  S
C1768      C1770   1.561       .  S
C1768      H1774   1.111       .  S
C1769      H1775   1.078       .  S
C1769      C2054   1.358       .  D
C1770      C2053   1.358       .  D
C1770      C2042   1.496       .  S
C1771      H2060   1.086       .  S
C1771      C2056   1.352   1_554  D
C1772      C2055   1.352       .  D
C1772      C1838   1.498       .  S
H1776      C2055   1.086       .  S
Fe1777     O1793   2.101       .  S
Fe1777     O1783   2.053       .  S
Fe1777     O1790   2.051       .  S
Fe1777     O1782   2.081       .  S
Fe1777     O1788   1.983       .  S
Fe1778     O1781   2.085       .  S
Fe1778     O1785   2.046       .  S
Fe1778     O1789   2.059       .  S
Fe1778     O1794   2.033       .  S
Fe1778     O1788   1.972       .  S
Fe1779     O1797   2.070       .  S
Fe1779     O1784   2.069       .  S
Fe1779     O1791   2.076       .  S
Fe1779     O1780   2.041       .  S
Fe1779     O1788   1.970       .  S
O1780      C1787   1.263       .  A
O1781      C1795   1.273       .  A
O1782      C1787   1.268       .  A
O1783      C1786   1.270       .  A
O1784      C1796   1.267       .  A
O1785      C1798   1.265       .  A
C1786      O1791   1.274       .  A
C1786      C1824   1.476       .  S
C1787      C1835   1.504       .  S
O1789      C1792   1.269       .  A
O1790      C1792   1.266       .  A
C1792      C1891   1.471       .  S
O1793      C1798   1.274       .  A
O1794      C1796   1.261       .  A
C1795      O1797   1.270       .  A
C1795      C1947   1.521       .  S
C1796      C1936   1.475       .  S
C1798      C1877   1.506       .  S
Fe1799     O1815   2.074       .  S
Fe1799     O1805   2.060       .  S
Fe1799     O1812   2.057       .  S
Fe1799     O1804   2.085       .  S
Fe1799     O1810   1.982       .  S
Fe1800     O1803   2.094       .  S
Fe1800     O1807   2.100       .  S
Fe1800     O1811   2.091       .  S
Fe1800     O1816   2.097       .  S
Fe1800     O1810   1.989       .  S
Fe1801     O1819   2.057       .  S
Fe1801     O1806   2.093       .  S
Fe1801     O1813   2.091       .  S
Fe1801     O1802   2.063       .  S
Fe1801     O1810   1.987       .  S
O1802      C1809   1.266       .  A
O1803      C1817   1.274       .  A
O1804      C1809   1.270       .  A
O1805      C1808   1.269       .  A
O1806      C1818   1.276       .  A
O1807      C1820   1.275       .  A
C1808      O1813   1.274       .  A
C1808      C1975   1.486       .  S
C1809      C1961   1.498       .  S
O1811      C1814   1.273       .  A
O1812      C1814   1.270       .  A
C1814      C1849   1.487       .  S
O1815      C1820   1.269       .  A
O1816      C1818   1.277       .  A
C1817      O1819   1.265       .  A
C1817      C1905   1.497       .  S
C1818      C1922   1.514       .  S
C1820      C1866   1.511       .  S
C1821      C1822   1.425       .  A
C1821      C1826   1.414       .  A
C1822      C1823   1.407       .  A
C1822      C1827   1.452       .  S
C1823      C1824   1.405       .  A
C1823      C1830   1.450       .  S
C1824      C1825   1.411       .  A
C1825      C1826   1.410       .  A
C1825      C1828   1.452       .  S
C1826      C1829   1.444       .  S
C1827      N2118   1.157       .  T
C1828      N1833   1.157       .  T
C1829      N1831   1.156       .  T
C1830      N1832   1.157       .  T
N1834      C2111   1.157       .  T
C1835      C1836   1.424       .  A
C1835      C1840   1.422       .  A
C1836      C1837   1.409       .  A
C1836      C1841   1.454       .  S
C1837      C1838   1.408       .  A
C1837      C1844   1.449       .  S
C1838      C1839   1.409       .  A
C1839      C1840   1.411       .  A
C1839      C1842   1.449       .  S
C1840      C1843   1.451       .  S
C1841      N1848   1.158       .  T
C1842      N1847   1.156       .  T
C1843      N1845   1.158       .  T
C1844      N1846   1.158       .  T
C1849      C1850   1.401       .  A
C1849      C1854   1.406       .  A
C1850      C1851   1.412       .  A
C1850      C1855   1.456       .  S
C1851      C1852   1.438       .  A
C1851      C1858   1.447       .  S
C1853      C1856   1.452       .  S
C1854      C1857   1.450       .  S
C1855      N1862   1.156       .  T
C1856      N1861   1.157       .  T
C1857      N1859   1.157       .  T
C1858      N2144   1.157       .  T
N1860      C2142   1.157       .  T
C1863      C1864   1.420       .  A
C1864      C1865   1.416       .  A
C1864      C1869   1.448       .  S
C1865      C1866   1.419       .  A
C1865      C1872   1.451       .  S
C1867      C1868   1.420       .  A
C1867      C1870   1.448       .  S
C1868      C1871   1.440       .  S
C1869      N2160   1.157       .  T
C1870      N1875   1.158       .  T
C1871      N1873   1.156       .  T
C1872      N1874   1.158       .  T
N1876      C2153   1.157       .  T
C1877      C1878   1.417       .  A
C1877      C1882   1.419       .  A
C1878      C1879   1.411       .  A
C1878      C1883   1.454       .  S
C1879      C1880   1.421       .  A
C1880      C1881   1.409       .  A
C1881      C1882   1.421       .  A
C1881      C1884   1.444       .  S
C1882      C1885   1.449       .  S
C1883      N1890   1.157       .  T
C1884      N1889   1.155       .  T
C1885      N1887   1.157       .  T
C1886      N1888   1.156   1_455  T
C1891      C1892   1.395       .  A
C1891      C1896   1.410       .  A
C1892      C1893   1.401       .  A
C1892      C1897   1.456       .  S
C1893      C1894   1.441       .  A
C1894      C1895   1.421       .  A
C1895      C1896   1.413       .  A
C1895      C1898   1.447       .  S
C1896      C1899   1.447       .  S
C1898      N1903   1.158       .  T
C1899      N1901   1.155       .  T
C1900      N1902   1.157   1_455  T
C1905      C1906   1.414       .  A
C1906      C1907   1.414       .  A
C1906      C1911   1.450       .  S
C1907      C1914   1.453       .  S
C1908      C1909   1.422       .  A
C1909      C1910   1.419       .  A
C1909      C1912   1.446       .  S
C1910      C1913   1.452       .  S
C1911      N1918   1.157       .  T
C1912      N1917   1.157       .  T
C1913      N1915   1.157       .  T
C1914      N2200   1.158   1_554  T
N1916      C2198   1.158       .  T
C1919      C1920   1.426       .  A
C1920      C1925   1.447       .  S
C1921      C1922   1.415       .  A
C1921      C1928   1.450       .  S
C1922      C1923   1.413       .  A
C1923      C1924   1.420       .  A
C1923      C1926   1.451       .  S
C1924      C1927   1.453       .  S
C1925      N1932   1.157       .  T
C1926      N1931   1.157       .  T
C1927      N2213   1.158       .  T
N1929      C2211   1.158       .  T
C1933      C1934   1.428       .  A
C1933      C1938   1.435       .  A
C1934      C1935   1.417       .  A
C1934      C1939   1.449       .  S
C1935      C1936   1.409       .  A
C1935      C1942   1.450       .  S
C1936      C1937   1.401       .  A
C1937      C1938   1.400       .  A
C1937      C1940   1.456       .  S
C1939      N2230   1.158       .  T
C1940      N1945   1.157       .  T
C1941      N1943   1.156       .  T
C1942      N1944   1.157       .  T
N1946      C2223   1.158   1_554  T
C1947      C1948   1.427       .  A
C1947      C1952   1.426       .  A
C1948      C1949   1.414       .  A
C1948      C1953   1.452       .  S
C1949      C1950   1.414       .  A
C1949      C1956   1.454       .  S
C1950      C1951   1.408       .  A
C1951      C1952   1.417       .  A
C1952      C1955   1.451       .  S
C1953      N1960   1.158       .  T
C1954      N1959   1.155       .  T
C1956      N2242   1.158       .  T
N1958      C2240   1.158       .  T
C1961      C1962   1.413       .  A
C1961      C1966   1.412       .  A
C1962      C1963   1.416       .  A
C1962      C1967   1.449       .  S
C1963      C1964   1.419       .  A
C1963      C1970   1.449       .  S
C1964      C1965   1.433       .  A
C1965      C1966   1.418       .  A
C1965      C1968   1.449       .  S
C1966      C1969   1.455       .  S
C1967      N1974   1.157       .  T
C1968      N2257   1.158       .  T
C1969      N1971   1.158       .  T
C1970      N1972   1.157       .  T
N1973      C2252   1.158       .  T
C1975      C1976   1.410       .  A
C1975      C1980   1.407       .  A
C1976      C1977   1.418       .  A
C1976      C1981   1.449       .  S
C1977      C1978   1.417       .  A
C1977      C1984   1.440       .  S
C1978      C1979   1.427       .  A
C1979      C1980   1.408       .  A
C1979      C1982   1.454       .  S
C1980      C1983   1.453       .  S
C1981      N1988   1.157       .  T
C1982      N2271   1.157       .  T
C1983      N1985   1.158       .  T
C1984      N1986   1.156       .  T
N1987      C2266   1.157       .  T
C1989      C1990   1.524       .  S
C1989      C1995   1.535       .  S
C1989      C1993   1.532       .  S
C1989      C2248   1.571       .  S
C1990      H1997   1.078       .  S
C1991      C1992   1.571       .  S
C1992      C1996   1.561       .  S
C1992      C1994   1.554       .  S
C1992      H1998   1.100       .  S
C1993      H1999   1.080       .  S
C1994      C2003   1.522       .  S
C1996      C2262   1.526       .  S
C2001      C2007   1.511   1_556  S
C2001      C2005   1.504       .  S
C2001      C2217   1.548       .  S
C2002      H2009   1.083       .  S
C2004      C2008   1.592       .  S
C2004      C2006   1.567       .  S
C2005      H2011   1.084       .  S
C2006      C2015   1.540       .  S
C2008      C2234   1.495       .  S
C2013      C2014   1.487       .  S
C2013      C2017   1.518       .  S
C2013      C2203   1.578       .  S
C2014      H2021   1.086       .  S
C2015      C2016   1.596       .  S
C2016      C2020   1.534       .  S
C2016      C2018   1.578       .  S
C2016      H2022   1.104       .  S
C2019      C2020   1.373       .  D
C2020      C2192   1.519       .  S
C2025      C2026   1.492       .  S
C2025      C2178   1.549       .  S
C2026      H2033   1.087       .  S
C2027      C2028   1.586       .  S
C2028      C2032   1.593       .  S
C2029      H2035   1.082   1_455  S
C2031      H2036   1.078       .  S
C2031      C2032   1.377       .  D
C2032      C2164   1.508       .  S
C2037      C2043   1.544   1_556  S
C2037      C2041   1.530   1_545  S
C2038      H2045   1.081       .  S
C2039      C2040   1.564   1_545  S
C2040      C2044   1.558   1_565  S
C2040      C2042   1.573       .  S
C2040      H2046   1.109       .  S
C2041      H2047   1.074       .  S
C2049      C2050   1.553       .  S
C2049      C2055   1.537       .  S
C2049      C2053   1.521       .  S
C2049      C2105   1.545       .  S
C2050      H2057   1.085       .  S
C2051      C2052   1.560   1_554  S
C2052      C2056   1.554       .  S
C2052      C2054   1.561   1_556  S
C2052      H2058   1.111       .  S
C2053      H2059   1.079       .  S
C2056      C2122   1.498       .  S
Fe2061     O2077   2.101       .  S
Fe2061     O2067   2.053       .  S
Fe2061     O2074   2.051       .  S
Fe2061     O2066   2.081       .  S
Fe2061     O2072   1.983       .  S
Fe2062     O2065   2.085       .  S
Fe2062     O2069   2.046       .  S
Fe2062     O2073   2.059       .  S
Fe2062     O2078   2.033       .  S
Fe2062     O2072   1.972       .  S
Fe2063     O2081   2.070       .  S
Fe2063     O2068   2.069       .  S
Fe2063     O2075   2.076       .  S
Fe2063     O2064   2.041       .  S
Fe2063     O2072   1.970       .  S
O2064      C2071   1.263       .  A
O2065      C2079   1.273       .  A
O2066      C2071   1.268       .  A
O2067      C2070   1.270       .  A
O2068      C2080   1.267       .  A
O2069      C2082   1.265       .  A
C2070      O2075   1.274       .  A
C2070      C2108   1.476       .  S
C2071      C2119   1.504       .  S
O2073      C2076   1.269       .  A
O2074      C2076   1.265       .  A
C2076      C2175   1.471       .  S
O2077      C2082   1.275       .  A
O2078      C2080   1.261       .  A
C2079      O2081   1.270       .  A
C2079      C2231   1.521       .  S
C2080      C2220   1.475       .  S
C2082      C2161   1.506       .  S
Fe2083     O2099   2.074       .  S
Fe2083     O2089   2.060       .  S
Fe2083     O2096   2.057       .  S
Fe2083     O2088   2.085       .  S
Fe2083     O2094   1.982       .  S
Fe2084     O2087   2.094       .  S
Fe2084     O2091   2.100       .  S
Fe2084     O2095   2.091       .  S
Fe2084     O2100   2.097       .  S
Fe2084     O2094   1.989       .  S
Fe2085     O2103   2.057       .  S
Fe2085     O2090   2.093       .  S
Fe2085     O2097   2.091       .  S
Fe2085     O2086   2.063       .  S
Fe2085     O2094   1.987       .  S
O2086      C2093   1.266       .  A
O2087      C2101   1.274       .  A
O2088      C2093   1.270       .  A
O2089      C2092   1.269       .  A
O2090      C2102   1.276       .  A
O2091      C2104   1.275       .  A
C2092      O2097   1.274       .  A
C2092      C2259   1.486       .  S
C2093      C2245   1.498       .  S
O2095      C2098   1.273       .  A
O2096      C2098   1.270       .  A
C2098      C2133   1.487       .  S
O2099      C2104   1.269       .  A
O2100      C2102   1.277       .  A
C2101      O2103   1.265       .  A
C2101      C2189   1.497       .  S
C2102      C2206   1.514       .  S
C2104      C2150   1.511       .  S
C2105      C2106   1.425       .  A
C2105      C2110   1.414       .  A
C2106      C2107   1.407       .  A
C2106      C2111   1.452       .  S
C2107      C2108   1.405       .  A
C2107      C2114   1.450       .  S
C2108      C2109   1.411       .  A
C2109      C2110   1.410       .  A
C2109      C2112   1.452       .  S
C2110      C2113   1.444       .  S
C2112      N2117   1.157       .  T
C2113      N2115   1.156       .  T
C2114      N2116   1.157       .  T
C2119      C2120   1.424       .  A
C2119      C2124   1.422       .  A
C2120      C2121   1.409       .  A
C2120      C2125   1.454       .  S
C2121      C2122   1.408       .  A
C2121      C2128   1.449       .  S
C2122      C2123   1.409       .  A
C2123      C2124   1.411       .  A
C2123      C2126   1.449       .  S
C2124      C2127   1.451       .  S
C2125      N2132   1.158       .  T
C2126      N2131   1.156       .  T
C2127      N2129   1.158       .  T
C2128      N2130   1.158       .  T
C2133      C2134   1.401       .  A
C2133      C2138   1.406       .  A
C2134      C2135   1.412       .  A
C2134      C2139   1.456       .  S
C2135      C2136   1.438       .  A
C2135      C2142   1.447       .  S
C2137      C2140   1.452       .  S
C2138      C2141   1.450       .  S
C2139      N2146   1.156       .  T
C2140      N2145   1.157       .  T
C2141      N2143   1.157       .  T
C2147      C2148   1.420       .  A
C2148      C2149   1.416       .  A
C2148      C2153   1.448       .  S
C2149      C2150   1.419       .  A
C2149      C2156   1.451       .  S
C2151      C2152   1.420       .  A
C2151      C2154   1.448       .  S
C2152      C2155   1.440       .  S
C2154      N2159   1.158       .  T
C2155      N2157   1.156       .  T
C2156      N2158   1.158       .  T
C2161      C2162   1.417       .  A
C2161      C2166   1.419       .  A
C2162      C2163   1.411       .  A
C2162      C2167   1.454       .  S
C2163      C2164   1.421       .  A
C2164      C2165   1.409       .  A
C2165      C2166   1.421       .  A
C2165      C2168   1.444       .  S
C2166      C2169   1.449       .  S
C2167      N2174   1.157       .  T
C2168      N2173   1.155       .  T
C2169      N2171   1.157       .  T
C2170      N2172   1.156   1_455  T
C2175      C2176   1.395       .  A
C2175      C2180   1.410       .  A
C2176      C2177   1.401       .  A
C2176      C2181   1.456       .  S
C2177      C2178   1.441       .  A
C2178      C2179   1.420       .  A
C2179      C2180   1.413       .  A
C2179      C2182   1.447       .  S
C2180      C2183   1.447       .  S
C2182      N2187   1.158   1_556  T
C2183      N2185   1.155       .  T
C2184      N2186   1.157   1_455  T
C2189      C2190   1.414       .  A
C2190      C2191   1.414       .  A
C2190      C2195   1.450       .  S
C2191      C2198   1.453       .  S
C2192      C2193   1.422       .  A
C2193      C2194   1.419       .  A
C2193      C2196   1.446       .  S
C2194      C2197   1.452       .  S
C2195      N2202   1.157       .  T
C2196      N2201   1.157       .  T
C2197      N2199   1.157       .  T
C2203      C2204   1.426       .  A
C2204      C2209   1.447       .  S
C2205      C2206   1.415       .  A
C2205      C2212   1.450       .  S
C2206      C2207   1.413       .  A
C2207      C2208   1.420       .  A
C2207      C2210   1.451       .  S
C2208      C2211   1.453       .  S
C2209      N2216   1.157       .  T
C2210      N2215   1.157       .  T
C2217      C2218   1.428       .  A
C2217      C2222   1.435       .  A
C2218      C2219   1.417       .  A
C2218      C2223   1.449       .  S
C2219      C2220   1.409       .  A
C2219      C2226   1.450       .  S
C2220      C2221   1.401       .  A
C2221      C2222   1.400       .  A
C2221      C2224   1.456       .  S
C2224      N2229   1.157       .  T
C2225      N2227   1.156       .  T
C2226      N2228   1.157       .  T
C2231      C2232   1.427       .  A
C2231      C2236   1.426       .  A
C2232      C2233   1.414       .  A
C2232      C2237   1.452       .  S
C2233      C2234   1.414       .  A
C2233      C2240   1.454       .  S
C2234      C2235   1.408       .  A
C2235      C2236   1.417       .  A
C2236      C2239   1.451       .  S
C2237      N2244   1.158       .  T
C2238      N2243   1.155       .  T
C2245      C2246   1.413       .  A
C2245      C2250   1.412       .  A
C2246      C2247   1.416       .  A
C2246      C2251   1.449       .  S
C2247      C2248   1.419       .  A
C2247      C2254   1.449       .  S
C2248      C2249   1.433       .  A
C2249      C2250   1.418       .  A
C2249      C2252   1.449       .  S
C2250      C2253   1.455       .  S
C2251      N2258   1.157       .  T
C2253      N2255   1.158       .  T
C2254      N2256   1.157       .  T
C2259      C2260   1.410       .  A
C2259      C2264   1.407       .  A
C2260      C2261   1.418       .  A
C2260      C2265   1.449       .  S
C2261      C2262   1.417       .  A
C2261      C2268   1.440       .  S
C2262      C2263   1.427       .  A
C2263      C2264   1.408       .  A
C2263      C2266   1.454       .  S
C2264      C2267   1.454       .  S
C2265      N2272   1.157       .  T
C2267      N2269   1.158       .  T
C2268      N2270   1.156       .  T
