geometry optimzed in LAMMPS
_audit_creation_date              2020-11-30 
_audit_creation_method            'lammps2cif' 
_symmetry_space_group_name_H-M    'P1' 
_symmetry_Int_Tables_number       1 
_symmetry_cell_setting            triclinic 
loop_ 
_symmetry_equiv_pos_as_xyz 
  x,y,z 
_cell_length_a                    33.26494199 
_cell_length_b                    32.959546734560895 
_cell_length_c                    32.4164336528869 
_cell_angle_alpha                 92.02290431050632 
_cell_angle_beta                  89.21346383795375 
_cell_angle_gamma                 90.34396135692359 
loop_ 
_atom_site_label 
_atom_site_type_symbol 
_atom_site_fract_x 
_atom_site_fract_y 
_atom_site_fract_z 
_atom_site_charge 
O1          O  0.45904404  0.44925842  0.44464670    -0.80000
O2          O  0.52691375  0.53912768  0.45568736    -0.80000
O3          O  0.43914837  0.53678180  0.46986435    -0.80000
O4          O  0.58571776  0.44591126  0.49172092    -0.80000
O5          O  0.47171161  0.59313702  0.48788767    -0.80100
O6          O  0.53899710  0.44121370  0.44464710    -0.80000
O7          O  0.58099375  0.52848950  0.49295945    -0.80000
O8          O  0.41095689  0.46117618  0.48863949    -0.80000
C9          C  0.42240455  0.44694314  0.45386539     1.09700
C10         C  0.56458721  0.54157855  0.46060028     1.09600
C11         C  0.44537549  0.57521925  0.46611235     1.09700
C12         C  0.57491559  0.43691751  0.45502678     1.09600
O13         O  0.53420686  0.39840685  0.52200776    -0.80000
O14         O  0.45617560  0.55384031  0.55826351    -0.80100
O15         O  0.44582404  0.46426710  0.56777869    -0.80000
O16         O  0.54529428  0.52676456  0.57700804    -0.80000
O17         O  0.53418165  0.57494751  0.53518357    -0.80100
O18         O  0.45406784  0.41050422  0.52536448    -0.80000
O19         O  0.54506577  0.44482477  0.57120956    -0.80000
O20         O  0.39824628  0.52521175  0.54119330    -0.80100
Co21       Co  0.49675195  0.42826796  0.48469476     1.51500
Co22       Co  0.49180452  0.54298220  0.50482254     1.51700
Co23       Co  0.44603515  0.50047241  0.52097794     1.51600
Co24       Co  0.56071174  0.48663230  0.53290574     1.51500
O25         O  0.50370756  0.48410864  0.51131909    -1.41900
C26         C  0.54422676  0.40818798  0.55881201     1.09600
C27         C  0.41752915  0.55083177  0.56320440     1.09700
C28         C  0.44219240  0.42651450  0.55988816     1.09600
C29         C  0.54874986  0.56348680  0.56845587     1.09600
O30         O  0.94853696  0.47361571  0.04004206    -0.80000
O31         O  0.09684863  0.55927493  0.00896748    -0.80000
O32         O  0.03603669  0.47089874  0.05122026    -0.80000
O33         O  0.96901221  0.56396562  0.05789743    -0.80000
O34         O  0.08922521  0.47725999  0.01036026    -0.80100
O35         O  0.92098828  0.54788799  0.01639350    -0.80000
O36         O  0.04844276  0.57061912  0.05478409    -0.80000
O37         O  0.97970760  0.41630969  0.02340486    -0.80000
C38         C  0.95433397  0.43544908  0.04580606     1.09700
C39         C  0.08493359  0.57226766  0.04446675     1.09600
C40         C  0.07336472  0.46675693  0.04445108     1.09700
C41         C  0.93235736  0.56437097  0.04985509     1.09600
O42         O  0.95491049  0.53971789  0.93648670    -0.80000
O43         O  0.05431384  0.47654992  0.92715501    -0.80100
O44         O  0.96473026  0.45233407  0.95106832    -0.80000
O45         O  0.04575382  0.60776130  0.97569959    -0.80000
O46         O  0.05856180  0.55884035  0.92944706    -0.80100
O47         O  0.90714578  0.48129592  0.96943842    -0.80000
O48         O  0.96445818  0.59654163  0.97381684    -0.80000
O49         O  0.04156305  0.43075331  0.97185115    -0.80100
Co50       Co  0.95547079  0.50667939  0.98604947     1.51500
Co51       Co  0.07087412  0.51802436  0.96950267     1.51700
Co52       Co  0.00062771  0.46515462  0.00290488     1.51600
Co53       Co  0.00695964  0.58107453  0.01486957     1.51500
O54         O  0.01354980  0.52333935  0.99221449    -1.41900
C55         C  0.95149354  0.57790111  0.94129835     1.09600
C56         C  0.05546027  0.43998638  0.93696279     1.09700
C57         C  0.92623996  0.45576378  0.94689662     1.09600
C58         C  0.05972080  0.59575842  0.94073452     1.09600
C59         C  0.77676257  0.27825032  0.77220285     0.86600
C60         C  0.74542370  0.29935203  0.74647972    -0.53600
C61         C  0.71999101  0.27333888  0.72583762     0.09500
C62         C  0.72841706  0.22811658  0.73261083     0.20500
C63         C  0.75221163  0.25102984  0.80039821    -0.54300
C64         C  0.72647017  0.22500005  0.78010229     0.09600
C65         C  0.79831337  0.24921257  0.74152827    -0.53900
C66         C  0.77320556  0.22311209  0.72067468     0.10200
H67         H  0.74314910  0.33216126  0.74526388     0.14700
H68         H  0.70774622  0.20708818  0.71564364     0.00500
H69         H  0.75405080  0.25336567  0.83382661     0.15000
H70         H  0.83037918  0.25010546  0.73508710     0.14800
O71         O  0.54606882  0.07674719  0.97924406    -0.80000
O72         O  0.46534360  0.91311405  0.98675739    -0.80000
O73         O  0.55743571  0.94481586  0.93971591    -0.80000
O74         O  0.41025135  0.02745639  0.98065279    -0.80000
O75         O  0.54652388  0.90002159  0.98719074    -0.80100
O76         O  0.46764616  0.05516115  0.96105301    -0.80000
O77         O  0.45867455  0.96704948  0.94858226    -0.80000
O78         O  0.55644741  0.02600429  0.93613830    -0.80000
C79         C  0.55818931  0.06352215  0.94423160     1.09700
C80         C  0.45420743  0.92933218  0.95351334     1.09600
C81         C  0.55691449  0.90854710  0.95054603     1.09700
C82         C  0.42902628  0.05099275  0.95723151     1.09600
O83         O  0.48511021  0.09765091  0.03202876    -0.80000
O84         O  0.55137588  0.94505528  0.06583813    -0.80100
O85         O  0.59410470  0.03224138  0.01832708    -0.80000
O86         O  0.42409537  0.96528381  0.02852668    -0.80000
O87         O  0.47225949  0.95383492  0.07013789    -0.80100
O88         O  0.54186346  0.04525546  0.05976016    -0.80000
O89         O  0.45234795  0.04271371  0.05059423    -0.80000
O90         O  0.59912889  0.94955991  0.01877210    -0.80100
Co91       Co  0.50491333  0.04666379  0.01249633     1.51500
Co92       Co  0.50899403  0.93148847  0.02690773     1.51700
Co93       Co  0.57312111  0.98832997  0.97889508     1.51600
Co94       Co  0.45882915  0.00409257  0.99746001     1.51500
O95         O  0.51652686  0.98724474  0.00348432    -1.41900
C96         C  0.45870791  0.08150514  0.05468721     1.09600
C97         C  0.58767398  0.94135442  0.05528809     1.09700
C98         C  0.57949896  0.04572986  0.05275226     1.09600
C99         C  0.43539321  0.95332956  0.06287209     1.09600
C100        C  0.22392050  0.80232872  0.71170185     0.86600
C101        C  0.25688924  0.82575535  0.73532972    -0.53600
C102        C  0.27765631  0.80279641  0.76232418     0.09500
C103        C  0.26360916  0.75805190  0.76235821     0.20500
C104        C  0.24585249  0.76606842  0.69061086    -0.54300
C105        C  0.26658955  0.74304371  0.71703478     0.09600
C106        C  0.19754841  0.78379587  0.74532073    -0.53900
C107        C  0.21811067  0.76036606  0.77152071     0.10200
H108        H  0.26232479  0.85791454  0.73163229     0.14700
H109        H  0.28012122  0.73864860  0.78361414     0.00500
H110        H  0.24607436  0.75911336  0.65769895     0.15000
H111        H  0.16512424  0.78749848  0.74713755     0.14800
O112        O  0.95488372  0.09356489  0.50605795    -0.80000
O113        O  0.03804878  0.93148799  0.50577327    -0.80000
O114        O  0.90145370  0.97776955  0.51038013    -0.80000
O115        O  0.04374527  0.06132892  0.55022423    -0.80000
O116        O  0.95978498  0.95033136  0.52533288    -0.80100
O117        O  0.03571431  0.10863448  0.50549577    -0.80000
O118        O  0.04425849  0.98121147  0.55045051    -0.80000
O119        O  0.94820403  0.03867304  0.54309444    -0.80000
C120        C  0.94277601  0.07623322  0.53866420     1.09700
C121        C  0.04902920  0.94437908  0.54099548     1.09600
C122        C  0.92124724  0.95303780  0.53081814     1.09700
C123        C  0.04450816  0.09809761  0.54169541     1.09600
O124        O  0.04159025  0.06781463  0.42426534    -0.80000
O125        O  0.97813366  0.91078985  0.45321446    -0.80100
O126        O  0.91428042  0.04174129  0.46377713    -0.80000
O127        O  0.08524713  0.97873300  0.46860991    -0.80000
O128        O  0.03463799  0.96518587  0.42651869    -0.80100
O129        O  0.96200219  0.05746984  0.42125940    -0.80000
O130        O  0.08825252  0.06125335  0.47098223    -0.80000
O131        O  0.94374348  0.96581223  0.43914742    -0.80100
Co132      Co  0.99878109  0.07827590  0.46463547     1.51500
Co133      Co  0.99692616  0.96161356  0.47388391     1.51700
Co134      Co  0.94947859  0.00306876  0.49302535     1.51600
Co135      Co  0.06202798  0.02056920  0.50949078     1.51500
O136        O  0.00666799  0.02124371  0.48485175    -1.41900
C137        C  0.07780557  0.07010672  0.43464418     1.09600
C138        C  0.95097793  0.92742197  0.43286255     1.09700
C139        C  0.92508935  0.05538705  0.42957796     1.09600
C140        C  0.07191053  0.96447022  0.43423219     1.09600
C141        C  0.71347341  0.71583040  0.28901394     0.86600
C142        C  0.73499842  0.68982043  0.25559787    -0.53600
C143        C  0.75858884  0.71151372  0.22959690     0.09500
C144        C  0.75850005  0.75748944  0.23912620     0.20500
C145        C  0.74690909  0.74026446  0.31069560    -0.54300
C146        C  0.77040482  0.76201188  0.28466948     0.09600
C147        C  0.69008594  0.74752791  0.26501289    -0.53900
C148        C  0.71377451  0.76911145  0.23846624     0.10200
H149        H  0.73244867  0.65693687  0.25329134     0.14700
H150        H  0.77810242  0.77501457  0.21812982     0.00500
H151        H  0.75175094  0.74025887  0.34377582     0.15000
H152        H  0.65791401  0.75206048  0.26798664     0.14800
C153        C  0.22250993  0.28963828  0.20690888     0.86600
C154        C  0.23832833  0.31483322  0.24389695    -0.53600
C155        C  0.26124876  0.29339493  0.26985283     0.09500
C156        C  0.26586867  0.24824439  0.25688411     0.20500
C157        C  0.26014025  0.27015940  0.18644206    -0.54300
C158        C  0.28246287  0.24803455  0.21240691     0.09600
C159        C  0.19977521  0.25396571  0.22603870    -0.53900
C160        C  0.22238040  0.23260005  0.25277958     0.10200
H161        H  0.23304925  0.34720867  0.24831424     0.14700
H162        H  0.28459639  0.23082478  0.27807021     0.00500
H163        H  0.26757844  0.27148292  0.15386424     0.15000
H164        H  0.16823759  0.24756820  0.22040334     0.14800
C165        C  0.78436764  0.28387861  0.21846919     0.86600
C166        C  0.80626958  0.25741914  0.24888009    -0.53600
C167        C  0.78168482  0.23137141  0.26937400     0.09500
C168        C  0.73711627  0.23476950  0.25837359     0.20500
C169        C  0.76179396  0.25332838  0.19032954    -0.54300
C170        C  0.73713610  0.22739064  0.21110709     0.09600
C171        C  0.75149495  0.30560026  0.24421321    -0.53900
C172        C  0.72706167  0.28003133  0.26526887     0.10200
H173        H  0.83873708  0.25762151  0.25212886     0.14700
H174        H  0.71718606  0.21386505  0.27549257     0.00500
H175        H  0.76577810  0.25180606  0.15700346     0.15000
H176        H  0.74835070  0.33829819  0.24717207     0.14800
C177        C  0.28944245  0.72589140  0.28518448     0.86600
C178        C  0.31494600  0.75500887  0.25978642    -0.53600
C179        C  0.29297505  0.78015538  0.23618921     0.09500
C180        C  0.24714628  0.77346383  0.24009863     0.20500
C181        C  0.26056718  0.75335823  0.31016371    -0.54300
C182        C  0.23854976  0.77860703  0.28693380     0.09600
C183        C  0.26345701  0.70305688  0.25336609    -0.53900
C184        C  0.24156117  0.72780115  0.22974187     0.10200
H185        H  0.34756182  0.75567997  0.26068020     0.14700
H186        H  0.22911407  0.79366760  0.22094798     0.00500
H187        H  0.25888364  0.75383954  0.34367516     0.15000
H188        H  0.26293009  0.67032618  0.24864347     0.14800
C189        C  0.27949974  0.20889009  0.77590773     0.86600
C190        C  0.30357420  0.23771052  0.74872639    -0.53600
C191        C  0.28085497  0.26515910  0.72936435     0.09500
C192        C  0.23552040  0.26152160  0.73848140     0.20500
C193        C  0.25469381  0.23666942  0.80533929    -0.54300
C194        C  0.23121859  0.26401416  0.78602498     0.09600
C195        C  0.24823254  0.18935383  0.74675959    -0.53900
C196        C  0.22522332  0.21689979  0.72703581     0.10200
H197        H  0.33580145  0.23626209  0.74369450     0.14700
H198        H  0.21692429  0.28361754  0.72223079     0.00500
H199        H  0.25499797  0.23400744  0.83861807     0.15000
H200        H  0.24440513  0.15674213  0.74243886     0.14800
C201        C  0.78618799  0.78332898  0.71680417     0.86600
C202        C  0.81157725  0.75778799  0.74495125    -0.53600
C203        C  0.79021984  0.72990208  0.76633148     0.09500
C204        C  0.74463973  0.72999332  0.75752476     0.20500
C205        C  0.76362077  0.75283723  0.68918003    -0.54300
C206        C  0.74104620  0.72531830  0.70996566     0.09600
C207        C  0.75368564  0.80221317  0.74542490    -0.53900
C208        C  0.73189611  0.77437183  0.76690601     0.10200
H209        H  0.84363063  0.76205259  0.74910134     0.14700
H210        H  0.72686737  0.70755825  0.77499956     0.00500
H211        H  0.76405474  0.75439778  0.65576723     0.15000
H212        H  0.74811897  0.83464548  0.74810845     0.14800
C213        C  0.09993047  0.17071287  0.60250914     0.20500
C214        C  0.12982164  0.20065486  0.60920766    -0.39400
C215        C  0.14998699  0.19953365  0.64714380     0.19400
C216        C  0.14128834  0.17042093  0.67574687     0.22100
C217        C  0.11115224  0.14116613  0.66945317    -0.39900
C218        C  0.09085094  0.14258707  0.63200295     0.20900
N219        N  0.08066004  0.16126322  0.56696950    -0.33200
C220        C  0.05970228  0.12664118  0.57405188    -0.10700
C221        C  0.06472161  0.11487053  0.61458619    -0.29600
N222        N  0.16678880  0.17311494  0.70746712    -0.46100
C223        C  0.19179070  0.20453194  0.69959673    -0.05400
C224        C  0.18207787  0.22216080  0.66242308    -0.22800
H225        H  0.13807070  0.22198123  0.58587302     0.19000
H226        H  0.10534261  0.11761882  0.69124726     0.17800
H227        H  0.05451568  0.08691013  0.62796592     0.14100
H228        H  0.19748733  0.24695828  0.64779158     0.14000
H229        H  0.08489519  0.17490666  0.53864285     0.32100
H230        H  0.16737354  0.15447476  0.73281296     0.34900
C231        C  0.15434745  0.12169791  0.37781243     0.20500
C232        C  0.18769156  0.14739382  0.37207781    -0.39400
C233        C  0.19168946  0.16383024  0.33276427     0.19400
C234        C  0.16435757  0.15564441  0.30169806     0.22100
C235        C  0.13121681  0.12992103  0.30732711    -0.39900
C236        C  0.12739405  0.11334703  0.34642730     0.20900
N237        N  0.14177224  0.10500655  0.41318426    -0.33200
C238        C  0.10642149  0.08623307  0.40410088    -0.10700
C239        C  0.09680143  0.09057909  0.36271472    -0.29600
N240        N  0.17265239  0.17777012  0.26857100    -0.46100
C241        C  0.20557889  0.20026229  0.27851635    -0.05400
C242        C  0.21859012  0.19204252  0.31812626    -0.22800
H243        H  0.20818791  0.15517817  0.39679908     0.19000
H244        H  0.10911972  0.12447266  0.28352849     0.17800
H245        H  0.06960136  0.08067629  0.34729587     0.14100
H246        H  0.24279115  0.20672933  0.33502039     0.14000
H247        H  0.15496444  0.10844003  0.44216096     0.32100
H248        H  0.15611090  0.17846606  0.24146210     0.34900
C249        C  0.82058087  0.85901690  0.64685043     0.20500
C250        C  0.81660435  0.88918433  0.61780883    -0.39400
C251        C  0.85245906  0.90153344  0.59871525     0.19400
C252        C  0.88934377  0.88482465  0.60752034     0.22100
C253        C  0.89323702  0.85451003  0.63634793    -0.39900
C254        C  0.85746547  0.84255638  0.65581142     0.20900
N255        N  0.79106234  0.84126587  0.66846706    -0.33200
C256        C  0.80926477  0.81348852  0.69168031    -0.10700
C257        C  0.85080533  0.81346231  0.68441849    -0.29600
N258        N  0.91879414  0.90135451  0.58479366    -0.46100
C259        C  0.90040865  0.92877854  0.56145010    -0.05400
C260        C  0.85910306  0.92981912  0.56922889    -0.22800
H261        H  0.78776497  0.90195351  0.61050121     0.19000
H262        H  0.92195641  0.84113683  0.64304055     0.17800
H263        H  0.87320659  0.79364169  0.69652202     0.14100
H264        H  0.83692297  0.94843023  0.55488007     0.14000
H265        H  0.76026541  0.84682994  0.66671176     0.32100
H266        H  0.94932123  0.89420492  0.58486794     0.34900
C267        C  0.16571443  0.85323428  0.32053467     0.20500
C268        C  0.12896791  0.87425349  0.32149421    -0.39400
C269        C  0.12288928  0.90150580  0.35543434     0.19400
C270        C  0.15144462  0.90753083  0.38574522     0.22100
C271        C  0.18780352  0.88627070  0.38504142    -0.39900
C272        C  0.19362301  0.85886785  0.35152125     0.20900
N273        N  0.17833009  0.82457465  0.29261914    -0.33200
C274        C  0.21411447  0.81153948  0.30658364    -0.10700
C275        C  0.22455353  0.83233096  0.34313830    -0.29600
N276        N  0.13772632  0.93288643  0.41598704    -0.46100
C277        C  0.09981006  0.94274879  0.40550216    -0.05400
C278        C  0.08954338  0.92398328  0.36769604    -0.22800
H279        H  0.10635824  0.86898123  0.29819249     0.19000
H280        H  0.20951598  0.88994327  0.40948284     0.17800
H281        H  0.25114690  0.82827439  0.36138846     0.14100
H282        H  0.06077443  0.92468864  0.35255400     0.14000
H283        H  0.16303346  0.81361760  0.26655201     0.32100
H284        H  0.15238274  0.94093561  0.44340712     0.34900
C285        C  0.90142062  0.84968424  0.37334067     0.20500
C286        C  0.88831015  0.80987075  0.36451726    -0.39400
C287        C  0.85662745  0.80583039  0.33665949     0.19400
C288        C  0.83968010  0.83885078  0.31829961     0.22100
C289        C  0.85259295  0.87880160  0.32746687    -0.39900
C290        C  0.88394123  0.88293042  0.35593081     0.20900
N291        N  0.92876374  0.86160295  0.40132320    -0.33200
C292        C  0.92834317  0.90273121  0.40240836    -0.10700
C293        C  0.90089524  0.91725914  0.37437725    -0.29600
N294        N  0.80818821  0.82703421  0.29511138    -0.46100
C295        C  0.80471245  0.78645229  0.29959718    -0.05400
C296        C  0.83439165  0.77211114  0.32512026    -0.22800
H297        H  0.90073249  0.78407038  0.37959955     0.19000
H298        H  0.83820232  0.90481590  0.31469069     0.17800
H299        H  0.89311876  0.94856035  0.36954796     0.14100
H300        H  0.83787705  0.74147586  0.33546499     0.14000
H301        H  0.94518202  0.84286245  0.42016789     0.32100
H302        H  0.78865896  0.84566562  0.27948087     0.34900
C303        C  0.83787896  0.15008829  0.30895957     0.20500
C304        C  0.87071642  0.12394158  0.31048511    -0.39400
C305        C  0.87405509  0.10253415  0.34670208     0.19400
C306        C  0.84653130  0.10641633  0.37902311     0.22100
C307        C  0.81308441  0.13226470  0.37719084    -0.39900
C308        C  0.80984346  0.15400302  0.34081399     0.20900
N309        N  0.83082186  0.17670088  0.27971092    -0.33200
C310        C  0.79801129  0.19782283  0.29269298    -0.10700
C311        C  0.78350306  0.18423613  0.33041332    -0.29600
N312        N  0.85961719  0.08687444  0.41204061    -0.46100
C313        C  0.89594933  0.07127173  0.40064012    -0.13000
C314        C  0.90555455  0.07990269  0.35995463    -0.22800
H315        H  0.89339301  0.12225243  0.28622138     0.19000
H316        H  0.79240667  0.13676799  0.40299435     0.17800
H317        H  0.75851021  0.19628315  0.34862806     0.14100
H318        H  0.93352666  0.07364361  0.34355363     0.14000
H319        H  0.84783712  0.18082948  0.25283400     0.32100
H320        H  0.84646586  0.08725143  0.44150147     0.34900
C321        C  0.10780880  0.90385339  0.62058199     0.20500
C322        C  0.12867601  0.90468048  0.65801519    -0.39400
C323        C  0.15628264  0.87316421  0.66256859     0.19400
C324        C  0.16279180  0.84353298  0.63198955     0.22100
C325        C  0.14184068  0.84263285  0.59471922    -0.39900
C326        C  0.11397429  0.87379002  0.59031126     0.20900
N327        N  0.08159289  0.93137954  0.60776405    -0.33200
C328        C  0.07109261  0.91878617  0.56905590    -0.10700
C329        C  0.09029627  0.88267058  0.55729058    -0.29600
N330        N  0.18925488  0.81606668  0.64423719    -0.46100
C331        C  0.19954979  0.82778806  0.68329470    -0.05400
C332        C  0.17963202  0.86353065  0.69563968    -0.22800
H333        H  0.12371046  0.92804253  0.68182043     0.19000
H334        H  0.14686522  0.81930785  0.57089587     0.17800
H335        H  0.08933963  0.86673769  0.52754442     0.14100
H336        H  0.18065754  0.87915134  0.72554535     0.14000
H337        H  0.07296743  0.95819273  0.62353916     0.32100
H338        H  0.19746388  0.78978367  0.62744015     0.34900
C339        C  0.65844009  0.09767823  0.10685088     0.20500
C340        C  0.69507395  0.11886423  0.10967771    -0.39400
C341        C  0.69916931  0.14519873  0.14431059     0.19400
C342        C  0.66946637  0.14946529  0.17444794     0.22100
C343        C  0.63280519  0.12817810  0.17166545    -0.39900
C344        C  0.62832963  0.10242680  0.13651381     0.20900
N345        N  0.64552157  0.07466996  0.07459743    -0.33200
C346        C  0.60663584  0.06527966  0.08322982    -0.10700
C347        C  0.59496813  0.08163667  0.12187215    -0.29600
N348        N  0.67967907  0.17838826  0.20281284    -0.46100
C349        C  0.71569970  0.19321630  0.19010046    -0.05400
C350        C  0.72894073  0.17300996  0.15389967    -0.22800
H351        H  0.71787547  0.11660966  0.08557127     0.19000
H352        H  0.60877012  0.13287992  0.19413506     0.17800
H353        H  0.56532300  0.08080727  0.13601191     0.14100
H354        H  0.75619658  0.17864068  0.13634660     0.14000
H355        H  0.66135095  0.06811841  0.04713506     0.32100
H356        H  0.66234745  0.18875749  0.22810230     0.34900
C357        C  0.36477960  0.20302986  0.15615210     0.20500
C358        C  0.39410744  0.20086151  0.12472775    -0.39400
C359        C  0.40864131  0.16198420  0.11431415     0.19400
C360        C  0.39471414  0.12751778  0.13320763     0.22100
C361        C  0.36556843  0.12974160  0.16517336    -0.39900
C362        C  0.35136747  0.16893678  0.17610698     0.20900
N363        N  0.34367858  0.23593067  0.16865110    -0.33200
C364        C  0.31669570  0.22306040  0.19705715    -0.10700
C365        C  0.32087954  0.18151702  0.20303398    -0.29600
N366        N  0.41130592  0.09392003  0.11519610    -0.46100
C367        C  0.43617088  0.10742275  0.08497132    -0.05400
C368        C  0.43538320  0.14965016  0.08378465    -0.22800
H369        H  0.40395388  0.22741470  0.10857065     0.19000
H370        H  0.35388619  0.10288595  0.17953713     0.17800
H371        H  0.30183762  0.16254756  0.22174596     0.14100
H372        H  0.45097694  0.16869531  0.06215494     0.14000
H373        H  0.34604244  0.26500937  0.15697226     0.32100
H374        H  0.40541889  0.06379213  0.12232454     0.34900
C375        C  0.38956696  0.90217793  0.14584987     0.20500
C376        C  0.39037671  0.88013730  0.18188205    -0.39400
C377        C  0.35675332  0.85570386  0.18912648     0.19400
C378        C  0.32437226  0.85343232  0.16279417     0.22100
C379        C  0.32360663  0.87547588  0.12638883    -0.39900
C380        C  0.35758535  0.89995425  0.11893310     0.20900
N381        N  0.41975634  0.92422311  0.13036736    -0.33200
C382        C  0.40749174  0.93582188  0.09296642    -0.10700
C383        C  0.36854061  0.92185980  0.08488147    -0.29600
N384        N  0.29681236  0.82670908  0.17636775    -0.46100
C385        C  0.31226511  0.81174663  0.21124818    -0.05400
C386        C  0.34953028  0.82924756  0.22007239    -0.22800
H387        H  0.41601392  0.88087994  0.20211274     0.19000
H388        H  0.29905690  0.87278149  0.10487873     0.17800
H389        H  0.35198639  0.92440860  0.05658805     0.14100
H390        H  0.36899434  0.82325008  0.24560354     0.14000
H391        H  0.44814110  0.92868372  0.14324849     0.32100
H392        H  0.26987834  0.81830785  0.16216135     0.34900
C393        C  0.61086250  0.83068227  0.89422360     0.20500
C394        C  0.64052279  0.80044748  0.88875299    -0.39400
C395        C  0.65828843  0.79678190  0.84902542     0.19400
C396        C  0.64744817  0.82169493  0.81756379     0.22100
C397        C  0.61770227  0.85131203  0.82283956    -0.39900
C398        C  0.59993860  0.85477382  0.86214995     0.20900
N399        N  0.59344016  0.84423810  0.92997335    -0.33200
C400        C  0.57188731  0.87744152  0.92034253    -0.10700
C401        C  0.57481257  0.88432355  0.87824479    -0.29600
N402        N  0.67138668  0.81572267  0.78431455    -0.46100
C403        C  0.69769663  0.78656064  0.79414238    -0.05400
C404        C  0.69026309  0.77347433  0.83411675    -0.22800
H405        H  0.65046899  0.78257484  0.91402314     0.19000
H406        H  0.61050338  0.87180776  0.79867295     0.17800
H407        H  0.56345534  0.91011102  0.86230487     0.14100
H408        H  0.70758629  0.75192648  0.85084791     0.14000
H409        H  0.59902193  0.83406873  0.95948601     0.32100
H410        H  0.67072595  0.83153738  0.75696133     0.34900
C411        C  0.39205884  0.11030210  0.87556246     0.20500
C412        C  0.39341999  0.13907133  0.84469046    -0.39400
C413        C  0.35617019  0.14963532  0.82836440     0.19400
C414        C  0.32025388  0.13292866  0.84164037     0.22100
C415        C  0.31886985  0.10389719  0.87230826    -0.39900
C416        C  0.35611716  0.09335099  0.88868949     0.20900
N417        N  0.42300285  0.09697855  0.89768203    -0.33200
C418        C  0.40655409  0.07143527  0.92515796    -0.10700
C419        C  0.36498215  0.06823683  0.92029244    -0.29600
N420        N  0.28892708  0.15046177  0.82351908    -0.46100
C421        C  0.30484598  0.17882054  0.79858848    -0.05400
C422        C  0.34694106  0.17869920  0.80066341    -0.22800
H423        H  0.42129700  0.15317070  0.83500741     0.19000
H424        H  0.29078142  0.09140553  0.88353340     0.17800
H425        H  0.34391621  0.05078602  0.93834360     0.14100
H426        H  0.36838595  0.19855552  0.78612687     0.14000
H427        H  0.45320899  0.10545120  0.89494128     0.32100
H428        H  0.25844841  0.14475957  0.82906757     0.34900
C429        C  0.65855473  0.88496027  0.11242492     0.20500
C430        C  0.69016548  0.85761846  0.11860579    -0.39400
C431        C  0.68948352  0.83813839  0.15668745     0.19400
C432        C  0.65930139  0.84489988  0.18589721     0.22100
C433        C  0.62820382  0.87236453  0.17996308    -0.39900
C434        C  0.62923946  0.89215192  0.14245351     0.20900
N435        N  0.64972993  0.90443529  0.07765036    -0.33200
C436        C  0.61445213  0.92386820  0.08597880    -0.10700
C437        C  0.60141351  0.91729982  0.12628596    -0.29600
N438        N  0.66394862  0.82129830  0.21843283    -0.46100
C439        C  0.69775705  0.79956008  0.21044181    -0.05400
C440        C  0.71462485  0.80930538  0.17222748    -0.22800
H441        H  0.71295337  0.85117900  0.09517507     0.19000
H442        H  0.60418835  0.87712345  0.20245487     0.17800
H443        H  0.57327297  0.92676253  0.14067713     0.14100
H444        H  0.74107282  0.79626176  0.15730979     0.14000
H445        H  0.66499392  0.90213257  0.04929695     0.32100
H446        H  0.64528679  0.82024677  0.24454988     0.34900
C447        C  0.39804776  0.89264115  0.86673860     0.20500
C448        C  0.37703864  0.89635666  0.82991411    -0.39400
C449        C  0.35289710  0.86313786  0.81806921     0.19400
C450        C  0.34980311  0.82866095  0.84101453     0.22100
C451        C  0.37091850  0.82488974  0.87805929    -0.39900
C452        C  0.39522685  0.85829364  0.89000224     0.20900
N453        N  0.42083750  0.92117995  0.88565845    -0.33200
C454        C  0.43270853  0.90526018  0.92145722    -0.10700
C455        C  0.41758766  0.86585319  0.92520053    -0.29600
N456        N  0.32337569  0.80220757  0.82373892    -0.46100
C457        C  0.30943427  0.82018360  0.78966527    -0.05400
C458        C  0.32743787  0.85818271  0.78521764    -0.22800
H459        H  0.37858281  0.92361884  0.81228150     0.19000
H460        H  0.36791514  0.79838112  0.89665985     0.17800
H461        H  0.42074094  0.84631149  0.95108558     0.14100
H462        H  0.32219892  0.87982783  0.76158769     0.14000
H463        H  0.42658872  0.95043021  0.87557619     0.32100
H464        H  0.31451478  0.77434032  0.83531838     0.34900
C465        C  0.83140979  0.18273125  0.63713782     0.20500
C466        C  0.86233432  0.18527214  0.60759575    -0.39400
C467        C  0.88157693  0.14879556  0.59670173     0.19400
C468        C  0.87085089  0.11234662  0.61379440     0.22100
C469        C  0.83960293  0.10970945  0.64334392    -0.39900
C470        C  0.82030141  0.14644868  0.65443738     0.20900
N471        N  0.81210662  0.21392394  0.65587294    -0.33200
C472        C  0.78880170  0.19784805  0.68577190    -0.10700
C473        C  0.79245330  0.15566188  0.68547021    -0.29600
N474        N  0.89339578  0.08195678  0.59731437    -0.46100
C475        C  0.91815235  0.09931397  0.56921656    -0.05400
C476        C  0.91189483  0.14100165  0.56834514    -0.22800
H477        H  0.87135550  0.21381874  0.59467648     0.19000
H478        H  0.83156844  0.08139115  0.65732381     0.17800
H479        H  0.78011005  0.13522825  0.70784684     0.14100
H480        H  0.92619190  0.16239116  0.54815297     0.14000
H481        H  0.81724904  0.24473279  0.65116555     0.32100
H482        H  0.89064016  0.05109264  0.60319413     0.34900
C483        C  0.60997894  0.14186487  0.89134816     0.20500
C484        C  0.63118091  0.17852544  0.88842091    -0.39400
C485        C  0.65428224  0.18279399  0.85234411     0.19400
C486        C  0.65598593  0.15313574  0.82107725     0.22100
C487        C  0.63493490  0.11617520  0.82412911    -0.39900
C488        C  0.61200657  0.11170712  0.86055631     0.20900
N489        N  0.58840075  0.12940601  0.92395571    -0.33200
C490        C  0.57701802  0.09074427  0.91431754    -0.10700
C491        C  0.59087378  0.07873917  0.87484332    -0.29600
N492        N  0.68120596  0.16444831  0.79054955    -0.46100
C493        C  0.69606734  0.20123509  0.80302742    -0.05400
C494        C  0.67973812  0.21359730  0.84129758    -0.22800
H495        H  0.63066863  0.20160609  0.91301704     0.19000
H496        H  0.63711806  0.09225306  0.80047268     0.17800
H497        H  0.58786716  0.04911291  0.85967177     0.14100
H498        H  0.68592721  0.24136034  0.85895488     0.14000
H499        H  0.58375278  0.14536963  0.95201457     0.32100
H500        H  0.68882546  0.14769125  0.76363757     0.34900
C501        C  0.14378067  0.40414513  0.09331577     0.20500
C502        C  0.17702547  0.37836144  0.09431589    -0.39400
C503        C  0.17966933  0.35483373  0.12925966     0.19400
C504        C  0.15159686  0.35697417  0.16107704     0.22100
C505        C  0.11792039  0.38253409  0.15990911    -0.39900
C506        C  0.11503836  0.40592079  0.12460723     0.20900
N507        N  0.13374163  0.42799398  0.06247258    -0.33200
C508        C  0.09789065  0.44461746  0.07353162    -0.10700
C509        C  0.08528749  0.43183170  0.11232559    -0.29600
N510        N  0.16228906  0.33284100  0.19164685    -0.46100
C511        C  0.19738255  0.31511474  0.17917707    -0.05400
C512        C  0.20886474  0.32805142  0.14008648    -0.22800
H513        H  0.19919361  0.37665553  0.06956703     0.19000
H514        H  0.09558193  0.38395453  0.18450386     0.17800
H515        H  0.05722411  0.43876267  0.12826768     0.14100
H516        H  0.23591968  0.32096833  0.12253118     0.14000
H517        H  0.14916074  0.43078390  0.03441762     0.32100
H518        H  0.14739461  0.32962369  0.21995442     0.34900
C519        C  0.12919011  0.63699622  0.12114071     0.20500
C520        C  0.12853713  0.66677714  0.15299850    -0.39400
C521        C  0.16598177  0.68240594  0.16456875     0.19400
C522        C  0.20148381  0.66866627  0.14635741     0.22100
C523        C  0.20212473  0.63905117  0.11402581    -0.39900
C524        C  0.16440467  0.62399772  0.10179022     0.20900
N525        N  0.09734070  0.61842542  0.10420456    -0.33200
C526        C  0.11190877  0.59398017  0.07312540    -0.10700
C527        C  0.15378609  0.59639666  0.07056517    -0.29600
N528        N  0.23311826  0.68576854  0.16555651    -0.46100
C529        C  0.21752399  0.71080050  0.19570899    -0.05400
C530        C  0.17576996  0.70982452  0.19590884    -0.22800
H531        H  0.10083442  0.67685702  0.16785360     0.19000
H532        H  0.22987317  0.62843596  0.09966891     0.17800
H533        H  0.17351926  0.58102617  0.04835025     0.14100
H534        H  0.15553620  0.72441227  0.21818436     0.14000
H535        H  0.06721018  0.62347152  0.11224785     0.32100
H536        H  0.26345985  0.67918701  0.16007501     0.34900
C537        C  0.85083946  0.60883242  0.10771824     0.20500
C538        C  0.81135377  0.61347098  0.12278629    -0.39400
C539        C  0.80501038  0.64659984  0.15042492     0.19400
C540        C  0.83543235  0.67355392  0.16152574     0.22100
C541        C  0.87499033  0.66855910  0.14698673    -0.39900
C542        C  0.88148864  0.63498890  0.12006414     0.20900
N543        N  0.86483995  0.57979293  0.08116959    -0.33200
C544        C  0.90476652  0.58726797  0.07736425    -0.10700
C545        C  0.91627723  0.62123055  0.10126323    -0.29600
N546        N  0.82200784  0.70166644  0.18928035    -0.46100
C547        C  0.78308958  0.69185300  0.19667398    -0.05400
C548        C  0.77129228  0.65786472  0.17291355    -0.22800
H549        H  0.78752239  0.59244088  0.11424285     0.19000
H550        H  0.89907662  0.68888208  0.15651569     0.17800
H551        H  0.94599007  0.63461524  0.10368000     0.14100
H552        H  0.74240350  0.64258617  0.17329676     0.14000
H553        H  0.84841684  0.55633939  0.06672652     0.32100
H554        H  0.83885309  0.72452764  0.20417117     0.34900
C555        C  0.13009639  0.64353273  0.87482957     0.20500
C556        C  0.16324641  0.64498317  0.84788512    -0.39400
C557        C  0.17378858  0.68353453  0.83463259     0.19400
C558        C  0.15251430  0.71800833  0.84680430     0.22100
C559        C  0.11982254  0.71668514  0.87470106    -0.39900
C560        C  0.10956715  0.67800218  0.88844635     0.20900
N561        N  0.11370160  0.61029463  0.89070880    -0.33200
C562        C  0.08283732  0.62346439  0.91517442    -0.10700
C563        C  0.07938623  0.66563752  0.91501999    -0.29600
N564        N  0.16656353  0.75035313  0.82693276    -0.46100
C565        C  0.19733159  0.73628503  0.80265702    -0.05400
C566        C  0.20295421  0.69488468  0.80681089    -0.22800
H567        H  0.17916736  0.61791983  0.83736347     0.19000
H568        H  0.10317981  0.74358627  0.88432011     0.17800
H569        H  0.05781240  0.68450843  0.93189050     0.14100
H570        H  0.22382148  0.67534854  0.78975128     0.14000
H571        H  0.12357501  0.58043925  0.88599947     0.32100
H572        H  0.15530438  0.77988784  0.82886299     0.34900
C573        C  0.89985763  0.65058434  0.88222625     0.20500
C574        C  0.88711946  0.68932558  0.87176600    -0.39400
C575        C  0.85592711  0.69032997  0.84316314     0.19400
C576        C  0.83847104  0.65550521  0.82612541     0.22100
C577        C  0.85165439  0.61661279  0.83617759    -0.39900
C578        C  0.88304986  0.61557126  0.86485164     0.20900
N579        N  0.92759886  0.64162232  0.91025017    -0.33200
C580        C  0.92872968  0.60054346  0.91081878    -0.10700
C581        C  0.90160387  0.58319913  0.88259015    -0.29600
N582        N  0.81019014  0.66498024  0.79863877    -0.46100
C583        C  0.81025290  0.70610472  0.79789116    -0.05400
C584        C  0.83823170  0.72282879  0.82539769    -0.22800
H585        H  0.90047723  0.71674730  0.88501263     0.19000
H586        H  0.83839227  0.58921140  0.82279500     0.17800
H587        H  0.89481202  0.55127667  0.87743304     0.14100
H588        H  0.84603263  0.75457618  0.83010489     0.14000
H589        H  0.94383604  0.66222037  0.92884313     0.32100
H590        H  0.79375918  0.64483828  0.77973689     0.34900
C591        C  0.11170294  0.35713767  0.89163801     0.20500
C592        C  0.13435061  0.32128836  0.89177303    -0.39400
C593        C  0.15857287  0.31328185  0.85661353     0.19400
C594        C  0.15985235  0.33871414  0.82357059     0.22100
C595        C  0.13730809  0.37465338  0.82348884    -0.39900
C596        C  0.11337307  0.38291276  0.85885019     0.20900
N597        N  0.08873913  0.37304983  0.92260379    -0.33200
C598        C  0.07610964  0.40953062  0.90977248    -0.10700
C599        C  0.09065715  0.41656715  0.87000676    -0.29600
N600        N  0.18578028  0.32462730  0.79422939    -0.46100
C601        C  0.20150721  0.29014973  0.80885534    -0.05400
C602        C  0.18512259  0.28215127  0.84771854    -0.22800
H603        H  0.13394599  0.30160121  0.91780707     0.19000
H604        H  0.13905516  0.39520541  0.79820679     0.17800
H605        H  0.08697687  0.44366896  0.85256765     0.14100
H606        H  0.19147910  0.25679177  0.86686367     0.14000
H607        H  0.08394049  0.36095035  0.95163446     0.32100
H608        H  0.19281365  0.33809765  0.76633967     0.34900
C609        C  0.88837958  0.39982293  0.12459601     0.20500
C610        C  0.85552787  0.40089473  0.15231627    -0.39400
C611        C  0.84341358  0.36320432  0.16737067     0.19400
C612        C  0.86260422  0.32740574  0.15571444     0.22100
C613        C  0.89556412  0.32636931  0.12844219    -0.39900
C614        C  0.90760006  0.36385868  0.11340156     0.20900
N615        N  0.90372310  0.43074622  0.10324952    -0.33200
C616        C  0.93265473  0.41402389  0.07827180    -0.10700
C617        C  0.93620065  0.37254802  0.08409950    -0.29600
N618        N  0.84420391  0.29552296  0.17242731    -0.46100
C619        C  0.81293320  0.31078192  0.19508845    -0.05400
C620        C  0.81160814  0.35314310  0.19281765    -0.22800
H621        H  0.83981863  0.42874846  0.16053911     0.19000
H622        H  0.90998441  0.29823549  0.11861641     0.17800
H623        H  0.95557714  0.35120418  0.06741066     0.14100
H624        H  0.79004022  0.37399001  0.20681905     0.14000
H625        H  0.89394792  0.46082560  0.10421810     0.32100
H626        H  0.85207112  0.26499923  0.16825551     0.34900
C627        C  0.81838423  0.35730688  0.83840925     0.20500
C628        C  0.81685663  0.38943850  0.86772242    -0.39400
C629        C  0.85406589  0.40353663  0.88193927     0.19400
C630        C  0.89019671  0.38692734  0.86821354     0.22100
C631        C  0.89171663  0.35496294  0.83842683    -0.39900
C632        C  0.85432821  0.34088028  0.82404766     0.20900
N633        N  0.78706965  0.33737639  0.82166765    -0.33200
C634        C  0.80286496  0.30807644  0.79608303    -0.10700
C635        C  0.84493646  0.30940614  0.79666836    -0.29600
N636        N  0.92115521  0.40411777  0.88878038    -0.46100
C637        C  0.90427122  0.43167991  0.91567865    -0.05400
C638        C  0.86263899  0.43243023  0.91200787    -0.22800
H639        H  0.78870420  0.40187045  0.87939113     0.19000
H640        H  0.91979315  0.34143600  0.82798176     0.17800
H641        H  0.86603808  0.28956010  0.78044977     0.14100
H642        H  0.84136348  0.45053081  0.93016718     0.14000
H643        H  0.75661372  0.34299044  0.82764739     0.32100
H644        H  0.95155306  0.39676159  0.88563958     0.34900
C645        C  0.61490426  0.63951108  0.60983836     0.20500
C646        C  0.64025500  0.67356972  0.60856370    -0.39400
C647        C  0.66619404  0.67909495  0.64204261     0.19400
C648        C  0.66679015  0.65302393  0.67455879     0.22100
C649        C  0.64172516  0.61862772  0.67557143    -0.39900
C650        C  0.61587702  0.61289576  0.64191256     0.20900
N651        N  0.58885800  0.62655973  0.58085851    -0.33200
C652        C  0.57348361  0.59112358  0.59424957    -0.10700
C653        C  0.58950644  0.58167028  0.63228779    -0.29600
N654        N  0.69380683  0.66557486  0.70293377    -0.46100
C655        C  0.71078972  0.69967059  0.68804957    -0.05400
C656        C  0.69424645  0.70889602  0.65008916    -0.22800
H657        H  0.64008168  0.69405152  0.58318119     0.19000
H658        H  0.64254182  0.59767342  0.70050005     0.17800
H659        H  0.58407307  0.55461511  0.64954474     0.14100
H660        H  0.70090941  0.73463428  0.63128106     0.14000
H661        H  0.58354357  0.63982974  0.55265395     0.32100
H662        H  0.70026484  0.65180338  0.73056320     0.34900
C663        C  0.37614985  0.38401425  0.63452110     0.20500
C664        C  0.34557383  0.38393913  0.66493462    -0.39400
C665        C  0.32933316  0.34566736  0.67365242     0.19400
C666        C  0.34298992  0.31041214  0.65376541     0.22100
C667        C  0.37326362  0.31052056  0.62335494    -0.39900
C668        C  0.38914006  0.34861683  0.61444504     0.20900
N669        N  0.39538676  0.41634997  0.61935531    -0.33200
C670        C  0.42022300  0.40127584  0.58906955    -0.10700
C671        C  0.41735945  0.35915926  0.58533498    -0.29600
N672        N  0.32499491  0.27777732  0.66928764    -0.46100
C673        C  0.29951276  0.29203967  0.69922670    -0.05400
C674        C  0.30098976  0.33433499  0.70276918    -0.22800
H675        H  0.33530646  0.41155297  0.68067397     0.19000
H676        H  0.38375535  0.28288638  0.60781411     0.17800
H677        H  0.43250260  0.33915799  0.56301961     0.14100
H678        H  0.28583899  0.35375897  0.72559008     0.14000
H679        H  0.39039620  0.44687041  0.62756488     0.32100
H680        H  0.33116730  0.24739709  0.66147875     0.34900
C681        C  0.64127167  0.36996178  0.39981288     0.20500
C682        C  0.66709182  0.33656956  0.39443411    -0.39400
C683        C  0.67340281  0.32249983  0.35347889     0.19400
C684        C  0.65564531  0.34067432  0.32049480     0.22100
C685        C  0.62937511  0.37356046  0.32590624    -0.39900
C686        C  0.62280832  0.38731396  0.36678493     0.20900
N687        N  0.62926925  0.38816267  0.43564155    -0.33200
C688        C  0.60238192  0.41668453  0.42525748    -0.10700
C689        C  0.59772286  0.41714736  0.38260250    -0.29600
N690        N  0.66982543  0.32477041  0.28457716    -0.46100
C691        C  0.69664628  0.29613057  0.29462723    -0.05400
C692        C  0.69934517  0.29336402  0.33730486    -0.22800
H693        H  0.68161162  0.32291794  0.42015960     0.19000
H694        H  0.61544618  0.38771925  0.30012142     0.17800
H695        H  0.57698761  0.43526819  0.36567275     0.14100
H696        H  0.72055205  0.27563837  0.35405612     0.14000
H697        H  0.63660942  0.37975043  0.46535990     0.32100
H698        H  0.66393145  0.33484130  0.25506105     0.34900
C699        C  0.35675218  0.68479624  0.35860992     0.20500
C700        C  0.38652329  0.68635230  0.38868466    -0.39400
C701        C  0.39751420  0.64888707  0.40388232     0.19400
C702        C  0.37985935  0.61264825  0.39060877     0.22100
C703        C  0.34999263  0.61111959  0.36050543    -0.39900
C704        C  0.33940028  0.64862874  0.34485437     0.20900
N705        N  0.34126387  0.71618771  0.33920401    -0.33200
C706        C  0.31414955  0.70003389  0.31242021    -0.10700
C707        C  0.31206026  0.65781083  0.31521327    -0.29600
N708        N  0.39517400  0.58137236  0.41054936    -0.46100
C709        C  0.42281021  0.59804535  0.43644669    -0.05400
C710        C  0.42520699  0.63997584  0.43312318    -0.22800
H711        H  0.40019185  0.71462684  0.39937482     0.19000
H712        H  0.33616533  0.58287586  0.34996248     0.17800
H713        H  0.29294317  0.63646062  0.29857205     0.14100
H714        H  0.44407594  0.66113983  0.45042341     0.14000
H715        H  0.34869086  0.74685116  0.34378978     0.32100
H716        H  0.38703234  0.55079113  0.40716095     0.34900
C717        C  0.63777663  0.59716099  0.40363289     0.20500
C718        C  0.67557203  0.61399968  0.39431420    -0.39400
C719        C  0.67585850  0.64343116  0.36397874     0.19400
C720        C  0.64120462  0.65552056  0.34484279     0.22100
C721        C  0.60360229  0.63841097  0.35385780    -0.39900
C722        C  0.60334213  0.60873115  0.38373314     0.20900
N723        N  0.62888609  0.56999523  0.43248900    -0.33200
C724        C  0.58851954  0.56424471  0.43061977    -0.10700
C725        C  0.57170095  0.58765065  0.40038675    -0.29600
N726        N  0.64939474  0.68385390  0.31707545    -0.46100
C727        C  0.68973264  0.68979847  0.31820910    -0.05400
C728        C  0.70722220  0.66479267  0.34692488    -0.22800
H729        H  0.70266675  0.60499641  0.40960147     0.19000
H730        H  0.57645562  0.64768591  0.33885334     0.17800
H731        H  0.54018885  0.59058025  0.39319020     0.14100
H732        H  0.73884304  0.66207981  0.35371485     0.14000
H733        H  0.64871593  0.55737860  0.45313663     0.32100
H734        H  0.62880925  0.69693508  0.29757510     0.34900
C735        C  0.59023994  0.35882654  0.64055047     0.20500
C736        C  0.61020162  0.35955832  0.67818244    -0.39400
C737        C  0.63768619  0.32838405  0.68313316     0.19400
C738        C  0.64471199  0.29822038  0.65314773     0.22100
C739        C  0.62491965  0.29771795  0.61500515    -0.39900
C740        C  0.59738970  0.32936000  0.60983934     0.20900
N741        N  0.56675561  0.38810843  0.62693061    -0.33200
C742        C  0.55939975  0.37813953  0.58690482    -0.10700
C743        C  0.57727879  0.34116072  0.57516246    -0.29600
N744        N  0.67405962  0.27334184  0.66503537    -0.46100
C745        C  0.68592198  0.28853413  0.70239256    -0.05400
C746        C  0.66386464  0.32271781  0.71460428    -0.22800
H747        H  0.60599667  0.38380928  0.70121281     0.19000
H748        H  0.63171659  0.27546862  0.59059038     0.17800
H749        H  0.57909534  0.32727674  0.54443677     0.14100
H750        H  0.66732919  0.34158597  0.74235926     0.14000
H751        H  0.55931016  0.41519543  0.64286399     0.32100
H752        H  0.68653844  0.24886762  0.64807781     0.34900
C753        C  0.34531467  0.60606579  0.62462104     0.20500
C754        C  0.30670052  0.62006009  0.63518383    -0.39400
C755        C  0.30500889  0.65288852  0.66375906     0.19400
C756        C  0.33915351  0.67029399  0.68097514     0.22100
C757        C  0.37794018  0.65652082  0.66997900    -0.39900
C758        C  0.37967733  0.62378205  0.64100429     0.20900
N759        N  0.35478316  0.57696480  0.59626007    -0.33200
C760        C  0.39548217  0.57624529  0.59401702    -0.10700
C761        C  0.41221283  0.60495925  0.62156334    -0.29600
N762        N  0.32943802  0.70302382  0.70502718    -0.46100
C763        C  0.28900820  0.70678392  0.70230114    -0.05400
C764        C  0.27273862  0.67600708  0.67701883    -0.22800
H765        H  0.27998028  0.60725556  0.62102352     0.19000
H766        H  0.40478081  0.67109658  0.68200774     0.17800
H767        H  0.44373656  0.61212521  0.62563269     0.14100
H768        H  0.24177932  0.67259801  0.66757235     0.14000
H769        H  0.33470329  0.55977420  0.57825312     0.32100
H770        H  0.34925095  0.72327139  0.71983649     0.34900
C771        C  0.33299112  0.33479332  0.34002972     0.20500
C772        C  0.37199342  0.34326846  0.35343729    -0.39400
C773        C  0.37572330  0.37571159  0.38209186     0.19400
C774        C  0.34308049  0.39769323  0.39730966     0.22100
C775        C  0.30388423  0.38968813  0.38325162    -0.39900
C776        C  0.30025698  0.35762611  0.35362421     0.20900
N777        N  0.32229994  0.30714977  0.31081715    -0.33200
C778        C  0.28271507  0.31303156  0.30465190    -0.10700
C779        C  0.26770051  0.34413498  0.33087917    -0.29600
N780        N  0.35508024  0.42658972  0.42505565    -0.46100
C781        C  0.39567455  0.42318119  0.42646609    -0.05400
C782        C  0.40948395  0.39196561  0.40003469    -0.22800
H783        H  0.39774854  0.32634841  0.34169886     0.19000
H784        H  0.27834812  0.40759794  0.39384115     0.17800
H785        H  0.23758736  0.35642788  0.33172784     0.14100
H786        H  0.44017761  0.38189283  0.39533453     0.14000
H787        H  0.34134297  0.28747775  0.29395497     0.32100
H788        H  0.33699806  0.44734972  0.44170363     0.34900
loop_ 
_geom_bond_atom_site_label_1 
_geom_bond_atom_site_label_2 
_geom_bond_distance 
_geom_bond_site_symmetry_2 
_ccdc_geom_bond_type 
O1            C9   1.253       .  A
O1          Co21   1.964       .  S
O2           C10   1.267       .  A
O2          Co22   1.963       .  S
O3           C11   1.292       .  A
O3          Co23   2.094       .  S
O4           C12   1.272       .  A
O4          Co24   2.033       .  S
O5           C11   1.263       .  A
O5          Co22   1.889       .  S
O6           C12   1.256       .  A
O6          Co21   1.956       .  S
O7           C10   1.279       .  A
O7          Co24   2.031       .  S
O8            C9   1.260       .  A
O8          Co23   2.014       .  S
C9          C781   1.469       .  S
C10         C724   1.469       .  S
C11         C709   1.460       .  S
C12         C688   1.466       .  S
O13          C26   1.273       .  A
O13         Co21   2.031       .  S
O14          C27   1.297       .  A
O14         Co22   2.107       .  S
O15          C28   1.267       .  A
O15         Co23   1.963       .  S
O16          C29   1.255       .  A
O16         Co24   1.978       .  S
O17          C29   1.259       .  A
O17         Co22   2.003       .  S
O18          C28   1.279       .  A
O18         Co21   2.022       .  S
O19          C26   1.259       .  A
O19         Co24   1.951       .  S
O20          C27   1.264       .  A
O20         Co23   1.890       .  S
Co21         O25   2.018       .  S
Co22         O25   2.002       .  S
Co23         O25   2.013       .  S
Co24         O25   2.030       .  S
C26         C742   1.465       .  S
C27         C760   1.472       .  S
C28         C670   1.466       .  S
C29         C652   1.470       .  S
O30          C38   1.294       .  A
O30         Co50   2.103   1_554  S
O31          C39   1.273       .  A
O31         Co51   2.031   1_554  S
O32          C40   1.265       .  A
O32         Co52   1.976       .  S
O33          C41   1.251       .  A
O33         Co53   1.964   1_655  S
O34          C40   1.276       .  A
O34         Co51   2.022   1_554  S
O35          C41   1.258       .  A
O35         Co50   2.005   1_554  S
O36          C39   1.256       .  A
O36         Co53   1.945       .  S
O37          C38   1.263       .  A
O37         Co52   1.889   1_655  S
C38         C616   1.467       .  S
C39         C526   1.466       .  S
C40         C508   1.471       .  S
C41         C544   1.465       .  S
O42          C55   1.268       .  A
O42         Co50   1.973       .  S
O43          C56   1.258       .  A
O43         Co51   1.984       .  S
O44          C57   1.295       .  A
O44         Co52   2.104   1_656  S
O45          C58   1.270       .  A
O45         Co53   2.018   1_556  S
O46          C58   1.259       .  A
O46         Co51   1.951       .  S
O47          C57   1.263       .  A
O47         Co50   1.884       .  S
O48          C55   1.280       .  A
O48         Co53   2.034   1_656  S
O49          C56   1.262       .  A
O49         Co52   2.013   1_556  S
Co50         O54   2.016   1_655  S
Co51         O54   2.041       .  S
Co52         O54   2.004   1_554  S
Co53         O54   2.027   1_554  S
C55         C580   1.478       .  S
C56         C598   1.478       .  S
C57         C637   1.465       .  S
C58         C562   1.463       .  S
C59          C60   1.529       .  S
C59          C65   1.530       .  S
C59          C63   1.528       .  S
C59         C634   1.508       .  S
C60          H67   1.087       .  S
C60          C61   1.366       .  D
C61          C62   1.542       .  S
C61         C745   1.473       .  S
C62          C66   1.542       .  S
C62          C64   1.547       .  S
C62          H68   1.111       .  S
C63          H69   1.086       .  S
C63          C64   1.367       .  D
C64         C493   1.483       .  S
C65          H70   1.085       .  S
C65          C66   1.364       .  D
C66         C472   1.471       .  S
O71          C79   1.263       .  A
O71         Co91   2.009   1_556  S
O72          C80   1.280       .  A
O72         Co92   2.038   1_556  S
O73          C81   1.258       .  A
O73         Co93   1.955       .  S
O74          C82   1.261       .  A
O74         Co94   1.889       .  S
O75          C81   1.273       .  A
O75         Co92   2.042   1_556  S
O76          C82   1.298       .  A
O76         Co91   2.119   1_556  S
O77          C80   1.267       .  A
O77         Co94   1.966   1_565  S
O78          C79   1.256       .  A
O78         Co93   1.980   1_545  S
C79         C490   1.475       .  S
C80         C454   1.475       .  S
C81         C400   1.476       .  S
C82         C418   1.473       .  S
O83          C96   1.264       .  A
O83         Co91   1.894       .  S
O84          C97   1.256       .  A
O84         Co92   1.945       .  S
O85          C98   1.277       .  A
O85         Co93   2.024   1_544  S
O86          C99   1.257       .  A
O86         Co94   2.007   1_564  S
O87          C99   1.252       .  A
O87         Co92   1.972       .  S
O88          C98   1.269       .  A
O88         Co91   1.979       .  S
O89          C96   1.297       .  A
O89         Co94   2.115   1_554  S
O90          C97   1.276       .  A
O90         Co93   2.053   1_554  S
Co91         O95   2.009   1_545  S
Co92         O95   2.026       .  S
Co93         O95   2.035   1_556  S
Co94         O95   2.015   1_546  S
C96         C367   1.478       .  S
C97         C436   1.479       .  S
C98         C346   1.476       .  S
C99         C382   1.468       .  S
C100        C101   1.535       .  S
C100        C106   1.531       .  S
C100        C104   1.539       .  S
C100        C331   1.514       .  S
C101        H108   1.085       .  S
C101        C102   1.373       .  D
C102        C103   1.544       .  S
C102        C457   1.488       .  S
C103        C107   1.540       .  S
C103        C105   1.536       .  S
C103        H109   1.110       .  S
C104        H110   1.083       .  S
C104        C105   1.362       .  D
C105        C763   1.474       .  S
C106        H111   1.087       .  S
C106        C107   1.362       .  D
C107        C565   1.469       .  S
O112        C120   1.278       .  A
O112       Co132   2.024       .  S
O113        C121   1.262       .  A
O113       Co133   2.013   1_455  S
O114        C122   1.262       .  A
O114       Co134   1.886   1_565  S
O115        C123   1.253       .  A
O115       Co135   1.944       .  S
O116        C122   1.295       .  A
O116       Co133   2.104       .  S
O117        C123   1.274       .  A
O117       Co132   2.050   1_455  S
O118        C121   1.252       .  A
O118       Co135   1.971   1_565  S
O119        C120   1.266       .  A
O119       Co134   1.969       .  S
C120        C475   1.471       .  S
C121        C328   1.469       .  S
C122        C259   1.462       .  S
C123        C220   1.476       .  S
O124        C137   1.256       .  A
O124       Co132   1.945   1_455  S
O125        C138   1.265       .  A
O125       Co133   1.888       .  S
O126        C139   1.258       .  A
O126       Co134   2.007       .  S
O127        C140   1.278       .  A
O127       Co135   2.027   1_565  S
O128        C140   1.269       .  A
O128       Co133   1.976   1_455  S
O129        C139   1.256       .  A
O129       Co132   1.978       .  S
O130        C137   1.277       .  A
O130       Co135   2.047       .  S
O131        C138   1.298       .  A
O131       Co134   2.109   1_565  S
Co132       O136   2.032   1_655  S
Co133       O136   2.010   1_665  S
Co134       O136   2.008   1_655  S
Co135       O136   2.018       .  S
C137        C238   1.474       .  S
C138        C292   1.470       .  S
C139        C313   1.469       .  S
C140        C277   1.476       .  S
C141        C142   1.530       .  S
C141        C147   1.545       .  S
C141        C145   1.533       .  S
C141        C727   1.511       .  S
C142        H149   1.087       .  S
C142        C143   1.362       .  D
C143        C144   1.536       .  S
C143        C547   1.469       .  S
C144        C148   1.539       .  S
C144        C146   1.536       .  S
C144        H150   1.110       .  S
C145        H151   1.087       .  S
C145        C146   1.362       .  D
C146        C295   1.470       .  S
C147        H152   1.084       .  S
C147        C148   1.373       .  D
C148        C439   1.483       .  S
C153        C154   1.532       .  S
C153        C159   1.538       .  S
C153        C157   1.541       .  S
C153        C511   1.515       .  S
C154        H161   1.087       .  S
C154        C155   1.362       .  D
C155        C156   1.540       .  S
C155        C778   1.472       .  S
C156        C160   1.539       .  S
C156        C158   1.537       .  S
C156        H162   1.111       .  S
C157        H163   1.084       .  S
C157        C158   1.363       .  D
C158        C364   1.479       .  S
C159        H164   1.086       .  S
C159        C160   1.371       .  D
C160        C241   1.479       .  S
C165        C166   1.533       .  S
C165        C171   1.532       .  S
C165        C169   1.535       .  S
C165        C619   1.510       .  S
C166        H173   1.087       .  S
C166        C167   1.365       .  D
C167        C168   1.535       .  S
C167        C310   1.472       .  S
C168        C172   1.539       .  S
C168        C170   1.543       .  S
C168        H174   1.111       .  S
C169        H175   1.086       .  S
C169        C170   1.369       .  D
C170        C349   1.480       .  S
C171        H176   1.084       .  S
C171        C172   1.362       .  D
C172        C691   1.468       .  S
C177        C178   1.531       .  S
C177        C183   1.529       .  S
C177        C181   1.528       .  S
C177        C706   1.504       .  S
C178        H185   1.086       .  S
C178        C179   1.369       .  D
C179        C180   1.543       .  S
C179        C385   1.479       .  S
C180        C184   1.541       .  S
C180        C182   1.545       .  S
C180        H186   1.110       .  S
C181        H187   1.087       .  S
C181        C182   1.365       .  D
C182        C274   1.481       .  S
C183        H188   1.084       .  S
C183        C184   1.360       .  D
C184        C529   1.465       .  S
C189        C190   1.533       .  S
C189        C195   1.538       .  S
C189        C193   1.535       .  S
C189        C421   1.521       .  S
C190        H197   1.083       .  S
C190        C191   1.358       .  D
C191        C192   1.538       .  S
C191        C673   1.471       .  S
C192        C196   1.542       .  S
C192        C194   1.545       .  S
C192        H198   1.110       .  S
C193        H199   1.086       .  S
C193        C194   1.370       .  D
C194        C601   1.487       .  S
C195        H200   1.086       .  S
C195        C196   1.372       .  D
C196        C223   1.480       .  S
C201        C202   1.529       .  S
C201        C207   1.535       .  S
C201        C205   1.524       .  S
C201        C256   1.507       .  S
C202        H209   1.084       .  S
C202        C203   1.361       .  D
C203        C204   1.547       .  S
C203        C583   1.479       .  S
C204        C208   1.544       .  S
C204        C206   1.550       .  S
C204        H210   1.110       .  S
C205        H211   1.086       .  S
C205        C206   1.364       .  D
C206        C655   1.483       .  S
C207        H212   1.086       .  S
C207        C208   1.370       .  D
C208        C403   1.479       .  S
C213        C218   1.384       .  A
C213        C214   1.410       .  A
C213        N219   1.352       .  A
C214        C215   1.411       .  A
C214        H225   1.082       .  S
C215        C224   1.386       .  A
C215        C216   1.384       .  A
C216        C217   1.399       .  A
C216        N222   1.342       .  A
C217        C218   1.400       .  A
C217        H226   1.083       .  S
C218        C221   1.370       .  A
N219        C220   1.358       .  A
N219        H229   1.044       .  S
C220        C221   1.396       .  A
C221        H227   1.083       .  S
N222        C223   1.353       .  A
N222        H230   1.044       .  S
C223        C224   1.399       .  A
C224        H228   1.082       .  S
C231        C236   1.385       .  A
C231        C232   1.406       .  A
C231        N237   1.349       .  A
C232        C233   1.407       .  A
C232        H243   1.082       .  S
C233        C242   1.378       .  A
C233        C234   1.384       .  A
C234        C235   1.401       .  A
C234        N240   1.344       .  A
C235        C236   1.402       .  A
C235        H244   1.083       .  S
C236        C239   1.372       .  A
N237        C238   1.357       .  A
N237        H247   1.044       .  S
C238        C239   1.396       .  A
C239        H245   1.083       .  S
N240        C241   1.355       .  A
N240        H248   1.044       .  S
C241        C242   1.397       .  A
C242        H246   1.082       .  S
C249        C254   1.383       .  A
C249        C250   1.401       .  A
C249        N255   1.342       .  A
C250        C251   1.401       .  A
C250        H261   1.082       .  S
C251        C260   1.373       .  A
C251        C252   1.385       .  A
C252        C253   1.400       .  A
C252        N258   1.342       .  A
C253        C254   1.400       .  A
C253        H262   1.082       .  S
C254        C257   1.372       .  A
N255        C256   1.356       .  A
N255        H265   1.044       .  S
C256        C257   1.399       .  A
C257        H263   1.081       .  S
N258        C259   1.353       .  A
N258        H266   1.044       .  S
C259        C260   1.394       .  A
C260        H264   1.083       .  S
C267        C272   1.384       .  A
C267        C268   1.408       .  A
C267        N273   1.350       .  A
C268        C269   1.409       .  A
C268        H279   1.082       .  S
C269        C278   1.384       .  A
C269        C270   1.384       .  A
C270        C271   1.401       .  A
C270        N276   1.342       .  A
C271        C272   1.400       .  A
C271        H280   1.083       .  S
C272        C275   1.373       .  A
N273        C274   1.357       .  A
N273        H283   1.045       .  S
C274        C275   1.395       .  A
C275        H281   1.083       .  S
N276        C277   1.355       .  A
N276        H284   1.045       .  S
C277        C278   1.399       .  A
C278        H282   1.082       .  S
C285        C290   1.385       .  A
C285        C286   1.401       .  A
C285        N291   1.341       .  A
C286        C287   1.400       .  A
C286        H297   1.083       .  S
C287        C296   1.375       .  A
C287        C288   1.385       .  A
C288        C289   1.406       .  A
C288        N294   1.345       .  A
C289        C290   1.405       .  A
C289        H298   1.082       .  S
C290        C293   1.382       .  A
N291        C292   1.355       .  A
N291        H301   1.045       .  S
C292        C293   1.395       .  A
C293        H299   1.082       .  S
N294        C295   1.355       .  A
N294        H302   1.045       .  S
C295        C296   1.392       .  A
C296        H300   1.083       .  S
C303        C308   1.385       .  A
C303        C304   1.398       .  A
C303        N309   1.338       .  A
C304        C305   1.397       .  A
C304        H315   1.083       .  S
C305        C314   1.372       .  A
C305        C306   1.385       .  A
C306        C307   1.409       .  A
C306        N312   1.347       .  A
C307        C308   1.407       .  A
C307        H316   1.082       .  S
C308        C311   1.384       .  A
N309        C310   1.352       .  A
N309        H319   1.045       .  S
C310        C311   1.396       .  A
C311        H317   1.082       .  S
N312        C313   1.358       .  A
N312        H320   1.045       .  S
C313        C314   1.392       .  A
C314        H318   1.083       .  S
C321        C326   1.384       .  A
C321        C322   1.406       .  A
C321        N327   1.343       .  A
C322        C323   1.404       .  A
C322        H333   1.082       .  S
C323        C332   1.380       .  A
C323        C324   1.383       .  A
C324        C325   1.402       .  A
C324        N330   1.340       .  A
C325        C326   1.400       .  A
C325        H334   1.082       .  S
C326        C329   1.378       .  A
N327        C328   1.357       .  A
N327        H337   1.045       .  S
C328        C329   1.393       .  A
C329        H335   1.082       .  S
N330        C331   1.358       .  A
N330        H338   1.043       .  S
C331        C332   1.398       .  A
C332        H336   1.082       .  S
C339        C344   1.385       .  A
C339        C340   1.403       .  A
C339        N345   1.344       .  A
C340        C341   1.402       .  A
C340        H351   1.082       .  S
C341        C350   1.377       .  A
C341        C342   1.384       .  A
C342        C343   1.406       .  A
C342        N348   1.346       .  A
C343        C344   1.406       .  A
C343        H352   1.082       .  S
C344        C347   1.382       .  A
N345        C346   1.356       .  A
N345        H355   1.045       .  S
C346        C347   1.397       .  A
C347        H353   1.082       .  S
N348        C349   1.356       .  A
N348        H356   1.044       .  S
C349        C350   1.396       .  A
C350        H354   1.082       .  S
C357        C362   1.385       .  A
C357        C358   1.401       .  A
C357        N363   1.343       .  A
C358        C359   1.401       .  A
C358        H369   1.082       .  S
C359        C368   1.374       .  A
C359        C360   1.384       .  A
C360        C361   1.410       .  A
C360        N366   1.351       .  A
C361        C362   1.410       .  A
C361        H370   1.082       .  S
C362        C365   1.385       .  A
N363        C364   1.354       .  A
N363        H373   1.045       .  S
C364        C365   1.398       .  A
C365        H371   1.082       .  S
N366        C367   1.359       .  A
N366        H374   1.044       .  S
C367        C368   1.394       .  A
C368        H372   1.083       .  S
C375        C380   1.385       .  A
C375        C376   1.398       .  A
C375        N381   1.338       .  A
C376        C377   1.396       .  A
C376        H387   1.083       .  S
C377        C386   1.370       .  A
C377        C378   1.384       .  A
C378        C379   1.408       .  A
C378        N384   1.348       .  A
C379        C380   1.408       .  A
C379        H388   1.082       .  S
C380        C383   1.384       .  A
N381        C382   1.353       .  A
N381        H391   1.045       .  S
C382        C383   1.397       .  A
C383        H389   1.082       .  S
N384        C385   1.358       .  A
N384        H392   1.044       .  S
C385        C386   1.393       .  A
C386        H390   1.082       .  S
C393        C398   1.384       .  A
C393        C394   1.412       .  A
C393        N399   1.352       .  A
C394        C395   1.411       .  A
C394        H405   1.082       .  S
C395        C404   1.387       .  A
C395        C396   1.385       .  A
C396        C397   1.399       .  A
C396        N402   1.341       .  A
C397        C398   1.399       .  A
C397        H406   1.083       .  S
C398        C401   1.372       .  A
N399        C400   1.360       .  A
N399        H409   1.044       .  S
C400        C401   1.393       .  A
C401        H407   1.083       .  S
N402        C403   1.353       .  A
N402        H410   1.045       .  S
C403        C404   1.398       .  A
C404        H408   1.082       .  S
C411        C416   1.385       .  A
C411        C412   1.403       .  A
C411        N417   1.347       .  A
C412        C413   1.405       .  A
C412        H423   1.082       .  S
C413        C422   1.375       .  A
C413        C414   1.382       .  A
C414        C415   1.404       .  A
C414        N420   1.346       .  A
C415        C416   1.405       .  A
C415        H424   1.082       .  S
C416        C419   1.376       .  A
N417        C418   1.355       .  A
N417        H427   1.045       .  S
C418        C419   1.397       .  A
C419        H425   1.083       .  S
N420        C421   1.358       .  A
N420        H428   1.044       .  S
C421        C422   1.403       .  A
C422        H426   1.080       .  S
C429        C434   1.384       .  A
C429        C430   1.410       .  A
C429        N435   1.353       .  A
C430        C431   1.411       .  A
C430        H441   1.082       .  S
C431        C440   1.382       .  A
C431        C432   1.384       .  A
C432        C433   1.398       .  A
C432        N438   1.344       .  A
C433        C434   1.400       .  A
C433        H442   1.083       .  S
C434        C437   1.368       .  A
N435        C436   1.360       .  A
N435        H445   1.045       .  S
C436        C437   1.395       .  A
C437        H443   1.083       .  S
N438        C439   1.354       .  A
N438        H446   1.044       .  S
C439        C440   1.400       .  A
C440        H444   1.082       .  S
C447        C452   1.384       .  A
C447        C448   1.401       .  A
C447        N453   1.341       .  A
C448        C449   1.400       .  A
C448        H459   1.082       .  S
C449        C458   1.374       .  A
C449        C450   1.382       .  A
C450        C451   1.409       .  A
C450        N456   1.348       .  A
C451        C452   1.408       .  A
C451        H460   1.082       .  S
C452        C455   1.385       .  A
N453        C454   1.355       .  A
N453        H463   1.045       .  S
C454        C455   1.399       .  A
C455        H461   1.082       .  S
N456        C457   1.360       .  A
N456        H464   1.044       .  S
C457        C458   1.396       .  A
C458        H462   1.082       .  S
C465        C470   1.385       .  A
C465        C466   1.400       .  A
C465        N471   1.338       .  A
C466        C467   1.397       .  A
C466        H477   1.082       .  S
C467        C476   1.374       .  A
C467        C468   1.383       .  A
C468        C469   1.408       .  A
C468        N474   1.346       .  A
C469        C470   1.407       .  A
C469        H478   1.082       .  S
C470        C473   1.385       .  A
N471        C472   1.353       .  A
N471        H481   1.045       .  S
C472        C473   1.396       .  A
C473        H479   1.082       .  S
N474        C475   1.359       .  A
N474        H482   1.045       .  S
C475        C476   1.392       .  A
C476        H480   1.082       .  S
C483        C488   1.385       .  A
C483        C484   1.401       .  A
C483        N489   1.344       .  A
C484        C485   1.401       .  A
C484        H495   1.082       .  S
C485        C494   1.372       .  A
C485        C486   1.384       .  A
C486        C487   1.407       .  A
C486        N492   1.350       .  A
C487        C488   1.409       .  A
C487        H496   1.082       .  S
C488        C491   1.381       .  A
N489        C490   1.354       .  A
N489        H499   1.045       .  S
C490        C491   1.399       .  A
C491        H497   1.082       .  S
N492        C493   1.357       .  A
N492        H500   1.045       .  S
C493        C494   1.396       .  A
C494        H498   1.082       .  S
C501        C506   1.384       .  A
C501        C502   1.400       .  A
C501        N507   1.340       .  A
C502        C503   1.399       .  A
C502        H513   1.082       .  S
C503        C512   1.374       .  A
C503        C504   1.382       .  A
C504        C505   1.407       .  A
C504        N510   1.345       .  A
C505        C506   1.407       .  A
C505        H514   1.082       .  S
C506        C509   1.383       .  A
N507        C508   1.354       .  A
N507        H517   1.045       .  S
C508        C509   1.398       .  A
C509        H515   1.082       .  S
N510        C511   1.359       .  A
N510        H518   1.045       .  S
C511        C512   1.399       .  A
C512        H516   1.080       .  S
C519        C524   1.384       .  A
C519        C520   1.399       .  A
C519        N525   1.335       .  A
C520        C521   1.396       .  A
C520        H531   1.082       .  S
C521        C530   1.377       .  A
C521        C522   1.384       .  A
C522        C523   1.407       .  A
C522        N528   1.341       .  A
C523        C524   1.404       .  A
C523        H532   1.082       .  S
C524        C527   1.385       .  A
N525        C526   1.354       .  A
N525        H535   1.045       .  S
C526        C527   1.396       .  A
C527        H533   1.082       .  S
N528        C529   1.356       .  A
N528        H536   1.045       .  S
C529        C530   1.389       .  A
C530        H534   1.082       .  S
C537        C542   1.385       .  A
C537        C538   1.402       .  A
C537        N543   1.345       .  A
C538        C539   1.403       .  A
C538        H549   1.082       .  S
C539        C548   1.375       .  A
C539        C540   1.385       .  A
C540        C541   1.400       .  A
C540        N546   1.343       .  A
C541        C542   1.401       .  A
C541        H550   1.083       .  S
C542        C545   1.372       .  A
N543        C544   1.354       .  A
N543        H553   1.045       .  S
C544        C545   1.393       .  A
C545        H551   1.083       .  S
N546        C547   1.353       .  A
N546        H554   1.045       .  S
C547        C548   1.394       .  A
C548        H552   1.082       .  S
C555        C560   1.385       .  A
C555        C556   1.399       .  A
C555        N561   1.337       .  A
C556        C557   1.397       .  A
C556        H567   1.082       .  S
C557        C566   1.375       .  A
C557        C558   1.385       .  A
C558        C559   1.406       .  A
C558        N564   1.343       .  A
C559        C560   1.404       .  A
C559        H568   1.082       .  S
C560        C563   1.383       .  A
N561        C562   1.353       .  A
N561        H571   1.045       .  S
C562        C563   1.396       .  A
C563        H569   1.082       .  S
N564        C565   1.356       .  A
N564        H572   1.045       .  S
C565        C566   1.390       .  A
C566        H570   1.083       .  S
C573        C578   1.384       .  A
C573        C574   1.402       .  A
C573        N579   1.345       .  A
C574        C575   1.402       .  A
C574        H585   1.082       .  S
C575        C584   1.373       .  A
C575        C576   1.384       .  A
C576        C577   1.408       .  A
C576        N582   1.350       .  A
C577        C578   1.409       .  A
C577        H586   1.082       .  S
C578        C581   1.382       .  A
N579        C580   1.355       .  A
N579        H589   1.045       .  S
C580        C581   1.399       .  A
C581        H587   1.082       .  S
N582        C583   1.357       .  A
N582        H590   1.045       .  S
C583        C584   1.395       .  A
C584        H588   1.083       .  S
C591        C596   1.384       .  A
C591        C592   1.405       .  A
C591        N597   1.346       .  A
C592        C593   1.405       .  A
C592        H603   1.082       .  S
C593        C602   1.378       .  A
C593        C594   1.383       .  A
C594        C595   1.406       .  A
C594        N600   1.347       .  A
C595        C596   1.406       .  A
C595        H604   1.082       .  S
C596        C599   1.381       .  A
N597        C598   1.357       .  A
N597        H607   1.045       .  S
C598        C599   1.397       .  A
C599        H605   1.082       .  S
N600        C601   1.357       .  A
N600        H608   1.044       .  S
C601        C602   1.399       .  A
C602        H606   1.082       .  S
C609        C614   1.385       .  A
C609        C610   1.405       .  A
C609        N615   1.346       .  A
C610        C611   1.405       .  A
C610        H621   1.082       .  S
C611        C620   1.379       .  A
C611        C612   1.383       .  A
C612        C613   1.399       .  A
C612        N618   1.340       .  A
C613        C614   1.399       .  A
C613        H622   1.082       .  S
C614        C617   1.371       .  A
N615        C616   1.356       .  A
N615        H625   1.045       .  S
C616        C617   1.393       .  A
C617        H623   1.083       .  S
N618        C619   1.354       .  A
N618        H626   1.045       .  S
C619        C620   1.402       .  A
C620        H624   1.081       .  S
C627        C632   1.384       .  A
C627        C628   1.398       .  A
C627        N633   1.339       .  A
C628        C629   1.398       .  A
C628        H639   1.083       .  S
C629        C638   1.370       .  A
C629        C630   1.385       .  A
C630        C631   1.404       .  A
C630        N636   1.346       .  A
C631        C632   1.405       .  A
C631        H640   1.082       .  S
C632        C635   1.378       .  A
N633        C634   1.354       .  A
N633        H643   1.045       .  S
C634        C635   1.400       .  A
C635        H641   1.081       .  S
N636        C637   1.356       .  A
N636        H644   1.044       .  S
C637        C638   1.392       .  A
C638        H642   1.083       .  S
C645        C650   1.385       .  A
C645        C646   1.401       .  A
C645        N651   1.344       .  A
C646        C647   1.402       .  A
C646        H657   1.083       .  S
C647        C656   1.372       .  A
C647        C648   1.384       .  A
C648        C649   1.404       .  A
C648        N654   1.348       .  A
C649        C650   1.405       .  A
C649        H658   1.082       .  S
C650        C653   1.378       .  A
N651        C652   1.355       .  A
N651        H661   1.045       .  S
C652        C653   1.396       .  A
C653        H659   1.082       .  S
N654        C655   1.356       .  A
N654        H662   1.044       .  S
C655        C656   1.399       .  A
C656        H660   1.082       .  S
C663        C668   1.384       .  A
C663        C664   1.407       .  A
C663        N669   1.344       .  A
C664        C665   1.406       .  A
C664        H675   1.082       .  S
C665        C674   1.384       .  A
C665        C666   1.385       .  A
C666        C667   1.400       .  A
C666        N672   1.338       .  A
C667        C668   1.397       .  A
C667        H676   1.082       .  S
C668        C671   1.374       .  A
N669        C670   1.357       .  A
N669        H679   1.045       .  S
C670        C671   1.392       .  A
C671        H677   1.083       .  S
N672        C673   1.353       .  A
N672        H680   1.045       .  S
C673        C674   1.395       .  A
C674        H678   1.082       .  S
C681        C686   1.384       .  A
C681        C682   1.405       .  A
C681        N687   1.345       .  A
C682        C683   1.404       .  A
C682        H693   1.082       .  S
C683        C692   1.380       .  A
C683        C684   1.385       .  A
C684        C685   1.401       .  A
C684        N690   1.341       .  A
C685        C686   1.400       .  A
C685        H694   1.083       .  S
C686        C689   1.374       .  A
N687        C688   1.356       .  A
N687        H697   1.044       .  S
C688        C689   1.394       .  A
C689        H695   1.083       .  S
N690        C691   1.354       .  A
N690        H698   1.045       .  S
C691        C692   1.394       .  A
C692        H696   1.082       .  S
C699        C704   1.384       .  A
C699        C700   1.399       .  A
C699        N705   1.339       .  A
C700        C701   1.398       .  A
C700        H711   1.082       .  S
C701        C710   1.371       .  A
C701        C702   1.385       .  A
C702        C703   1.402       .  A
C702        N708   1.343       .  A
C703        C704   1.402       .  A
C703        H712   1.082       .  S
C704        C707   1.375       .  A
N705        C706   1.354       .  A
N705        H715   1.045       .  S
C706        C707   1.399       .  A
C707        H713   1.081       .  S
N708        C709   1.354       .  A
N708        H716   1.045       .  S
C709        C710   1.392       .  A
C710        H714   1.083       .  S
C717        C722   1.384       .  A
C717        C718   1.405       .  A
C717        N723   1.346       .  A
C718        C719   1.405       .  A
C718        H729   1.083       .  S
C719        C728   1.376       .  A
C719        C720   1.384       .  A
C720        C721   1.400       .  A
C720        N726   1.344       .  A
C721        C722   1.401       .  A
C721        H730   1.082       .  S
C722        C725   1.373       .  A
N723        C724   1.357       .  A
N723        H733   1.045       .  S
C724        C725   1.394       .  A
C725        H731   1.083       .  S
N726        C727   1.356       .  A
N726        H734   1.044       .  S
C727        C728   1.400       .  A
C728        H732   1.082       .  S
C735        C740   1.385       .  A
C735        C736   1.396       .  A
C735        N741   1.336       .  A
C736        C737   1.394       .  A
C736        H747   1.083       .  S
C737        C746   1.369       .  A
C737        C738   1.384       .  A
C738        C739   1.408       .  A
C738        N744   1.348       .  A
C739        C740   1.408       .  A
C739        H748   1.082       .  S
C740        C743   1.385       .  A
N741        C742   1.352       .  A
N741        H751   1.045       .  S
C742        C743   1.398       .  A
C743        H749   1.082       .  S
N744        C745   1.357       .  A
N744        H752   1.045       .  S
C745        C746   1.391       .  A
C746        H750   1.083       .  S
C753        C758   1.384       .  A
C753        C754   1.401       .  A
C753        N759   1.341       .  A
C754        C755   1.400       .  A
C754        H765   1.083       .  S
C755        C764   1.375       .  A
C755        C756   1.385       .  A
C756        C757   1.407       .  A
C756        N762   1.347       .  A
C757        C758   1.406       .  A
C757        H766   1.082       .  S
C758        C761   1.384       .  A
N759        C760   1.355       .  A
N759        H769   1.044       .  S
C760        C761   1.397       .  A
C761        H767   1.082       .  S
N762        C763   1.356       .  A
N762        H770   1.045       .  S
C763        C764   1.393       .  A
C764        H768   1.083       .  S
C771        C776   1.385       .  A
C771        C772   1.397       .  A
C771        N777   1.341       .  A
C772        C773   1.398       .  A
C772        H783   1.082       .  S
C773        C782   1.369       .  A
C773        C774   1.385       .  A
C774        C775   1.407       .  A
C774        N780   1.349       .  A
C775        C776   1.408       .  A
C775        H784   1.082       .  S
C776        C779   1.381       .  A
N777        C778   1.351       .  A
N777        H787   1.044       .  S
C778        C779   1.399       .  A
C779        H785   1.082       .  S
N780        C781   1.357       .  A
N780        H788   1.045       .  S
C781        C782   1.392       .  A
C782        H786   1.083       .  S
