geometry optimzed in LAMMPS
_audit_creation_date              2020-11-30 
_audit_creation_method            'lammps2cif' 
_symmetry_space_group_name_H-M    'P1' 
_symmetry_Int_Tables_number       1 
_symmetry_cell_setting            triclinic 
loop_ 
_symmetry_equiv_pos_as_xyz 
  x,y,z 
_cell_length_a                    41.39019995 
_cell_length_b                    41.295403394682744 
_cell_length_c                    35.431462258046764 
_cell_angle_alpha                 87.69340780782919 
_cell_angle_beta                  88.76911435726886 
_cell_angle_gamma                 105.62211333056104 
loop_ 
_atom_site_label 
_atom_site_type_symbol 
_atom_site_fract_x 
_atom_site_fract_y 
_atom_site_fract_z 
_atom_site_charge 
O1          O  0.01485552  0.25425005  0.44509178    -0.72300
O2          O  0.03336202  0.25982969  0.04895206    -0.72300
O3          O  0.02678804  0.21214962  0.99736535    -0.72400
O4          O  0.01732492  0.30128579  0.49755045    -0.72500
O5          O  0.47161211  0.29150245  0.50263964    -0.72400
O6          O  0.46930855  0.19843204  0.00699301    -0.72400
O7          O  0.47650577  0.24627947  0.05846296    -0.72300
O8          O  0.46502121  0.24339160  0.45109538    -0.72400
Ni9        Ni  0.01749353  0.25508358  0.49964157     1.25400
Ni10       Ni  0.46854468  0.24458103  0.00520894     1.25400
C11         C  0.49093374  0.24937263  0.42874315     0.89900
C12         C  0.50629968  0.25354761  0.07110949     0.89800
C13         C  0.99866038  0.18996102  0.00276424     0.89800
C14         C  0.99000412  0.31001433  0.49838241     0.90000
O15         O  0.47282912  0.28583303  0.25272392    -0.72300
O16         O  0.47068375  0.19228159  0.25740708    -0.72300
O17         O  0.47742033  0.24080197  0.30857722    -0.72400
O18         O  0.46572639  0.23758180  0.20169033    -0.72500
O19         O  0.02007182  0.25224650  0.19221122    -0.72400
O20         O  0.03123515  0.25439688  0.29947764    -0.72400
O21         O  0.02399196  0.20625081  0.24767060    -0.72300
O22         O  0.02674672  0.30000766  0.24385516    -0.72400
Ni23       Ni  0.46967862  0.23857758  0.25546628     1.25400
Ni24       Ni  0.02751006  0.25366909  0.24550255     1.25400
C25         C  0.50103398  0.30799604  0.24715094     0.89900
C26         C  0.49821434  0.18413425  0.25295602     0.89800
C27         C  0.50710684  0.24853708  0.32138552     0.89800
C28         C  0.49148708  0.24460412  0.17912081     0.90000
O29         O  0.40984266  0.47333335  0.47907095    -0.78800
O30         O  0.06624064  0.48364662  0.49680061    -0.63500
O31         O  0.47422364  0.47806169  0.01012805    -1.10100
C32         C  0.50019153  0.09270720  0.01057737     1.08100
O33         O  0.08808427  0.03199716  0.02163884    -0.76700
O34         O  0.03342373  0.02879494  0.06769079    -0.64300
Ni35       Ni  0.44261889  0.44770054  0.47774750     1.34900
C36         C  0.00237696  0.02255199  0.07666806     0.86800
O37         O  0.01200964  0.43160049  0.51137983    -0.77200
O38         O  0.46980857  0.41621635  0.47411906    -0.87500
C39         C  0.09336037  0.51137142  0.00879604     0.86400
O40         O  0.46443067  0.47364094  0.43446299    -0.65700
O41         O  0.02656311  0.08690035  0.03041955    -0.85000
C42         C  0.49543749  0.47949870  0.42554277     0.87200
C43         C  0.99248060  0.40940124  0.49255336     1.08800
H44         H  0.02896476  0.03318311  0.46590043     0.40600
O45         O  0.02233582  0.02644846  0.49197799    -1.07600
O46         O  0.47832486  0.02748885  0.05467099    -0.64300
Ni47       Ni  0.47725857  0.02331361  0.00037906     1.26300
O48         O  0.01796136  0.47471197  0.44783161    -0.64500
O49         O  0.48241013  0.07020087  0.99083789    -0.76800
C50         C  0.40527116  0.99500963  0.49348844     0.86600
O51         O  0.43015951  0.01743166  0.00598565    -0.64000
Ni52       Ni  0.05456947  0.05636589  0.02506885     1.27400
Ni53       Ni  0.01902976  0.47902203  0.50207793     1.26100
H54         H  0.46714826  0.47125857  0.03607326     0.41200
O55         O  0.41041253  0.46065152  0.22608895    -0.78800
O56         O  0.06551005  0.47661777  0.24344209    -0.63500
O57         O  0.47349563  0.46945988  0.25619321    -1.10100
C58         C  0.50394245  0.08716023  0.25578173     1.08100
O59         O  0.08559027  0.02971899  0.27212050    -0.76700
O60         O  0.02933512  0.02374852  0.31661020    -0.64300
Ni61       Ni  0.44617617  0.43936074  0.22236378     1.34900
C62         C  0.99810797  0.01628558  0.32505105     0.86800
O63         O  0.01169113  0.42706709  0.26080887    -0.77200
O64         O  0.47672550  0.41163343  0.21665357    -0.87500
C65         C  0.09030155  0.49775251  0.25642139     0.86400
O66         O  0.46692103  0.46905077  0.18105079    -0.65700
O67         O  0.02063796  0.08072498  0.27935414    -0.85000
C68         C  0.49821969  0.47687598  0.17286110     0.87200
C69         C  0.99308635  0.40486987  0.24150749     1.08800
H70         H  0.02976851  0.02955300  0.21555643     0.40600
O71         O  0.02252160  0.02199809  0.24128001    -1.07600
O72         O  0.47931941  0.02305415  0.30133106    -0.64300
Ni73       Ni  0.47710872  0.01772681  0.24731037     1.26300
O74         O  0.01661020  0.46876572  0.19604592    -0.64500
O75         O  0.48461044  0.06482495  0.23713199    -0.76800
C76         C  0.40560353  0.99239389  0.24229220     0.86600
O77         O  0.43053512  0.01466653  0.25350810    -0.64000
Ni78       Ni  0.05043100  0.05210845  0.27458793     1.27400
Ni79       Ni  0.01925042  0.47397144  0.25014211     1.26100
H80         H  0.46616923  0.46185857  0.28188955     0.41200
O81         O  0.24586117  0.48421909  0.05538241    -0.72300
O82         O  0.24386834  0.48075734  0.44667880    -0.72300
O83         O  0.29224722  0.48486008  0.99977733    -0.72400
O84         O  0.19972275  0.48359446  0.00193889    -0.72500
O85         O  0.20859853  0.02862116  0.49662311    -0.72400
O86         O  0.30108115  0.02834833  0.49364670    -0.72400
O87         O  0.25308875  0.02284873  0.44159041    -0.72300
O88         O  0.25678426  0.03199157  0.04810922    -0.72400
Ni89       Ni  0.24556223  0.48253915  0.00091976     1.25400
Ni90       Ni  0.25537489  0.03041378  0.49477720     1.25400
C91         C  0.25311923  0.51230555  0.07190919     0.89900
C92         C  0.25074365  0.50891016  0.42726702     0.89800
C93         C  0.31254181  0.51050342  0.49757545     0.89800
C94         C  0.19163011  0.51133137  0.00133026     0.90000
O95         O  0.30207996  0.02798026  0.24325787    -0.72300
O96         O  0.20922597  0.02708605  0.24584551    -0.72300
O97         O  0.25733919  0.03390236  0.29786672    -0.72400
O98         O  0.25392757  0.02120077  0.19124116    -0.72500
O99         O  0.23856975  0.45816130  0.19768621    -0.72400
O100        O  0.23841415  0.45680932  0.30585099    -0.72400
O101        O  0.19204020  0.45766874  0.25307741    -0.72300
O102        O  0.28523243  0.45841031  0.25037117    -0.72400
Ni103      Ni  0.25616462  0.02953530  0.24414899     1.25400
Ni104      Ni  0.23804403  0.45575645  0.25182683     1.25400
C105        C  0.30764873  0.48679364  0.24875964     0.89900
C106        C  0.18463735  0.48589199  0.25242342     0.89800
C107        C  0.24563638  0.48445341  0.32289368     0.89800
C108        C  0.24602686  0.48622894  0.17847490     0.90000
C109        C  0.25125669  0.51020350  0.38535857    -0.14300
C110        C  0.24499555  0.48266930  0.36483713    -0.29500
H111        H  0.25711222  0.53491548  0.37093265     0.14700
H112        H  0.25879576  0.03940213  0.37088391     0.15300
C113        C  0.24581486  0.48532729  0.13666284    -0.14300
C114        C  0.25325366  0.51323055  0.11372332    -0.29500
H115        H  0.23932982  0.46078121  0.12444484     0.14700
H116        H  0.25825785  0.03734515  0.12101321     0.15300
C117        C  0.12243670  0.49078503  0.25485356    -0.11200
C118        C  0.15021915  0.48674856  0.25365612    -0.12700
C119        C  0.37290652  0.99793679  0.24516923    -0.11200
C120        C  0.34255728  0.48774679  0.24702054    -0.12700
C121        C  0.15667228  0.51021300  0.00289156    -0.11200
C122        C  0.12732574  0.50929787  0.00515279    -0.12700
C123        C  0.34719428  0.51044273  0.49631928    -0.11200
C124        C  0.37187840  0.99887108  0.49564497    -0.12700
C125        C  0.48874463  0.00488625  0.36278303    -0.14300
C126        C  0.50737398  0.49247826  0.38718661    -0.29500
H127        H  0.46122078  0.50001045  0.37045141     0.14700
H128        H  0.03240649  0.99463980  0.37927669     0.15300
C129        C  0.48695245  0.00465294  0.11423221    -0.14300
C130        C  0.51083987  0.49350586  0.13605506    -0.29500
H131        H  0.46107704  0.00277824  0.12263125     0.14700
H132        H  0.03366098  0.49324980  0.12793494     0.15300
C133        C  0.50186857  0.34293044  0.24494853    -0.11200
C134        C  0.99740094  0.37156825  0.24326040    -0.12700
C135        C  0.49786895  0.14924280  0.25409991    -0.11200
C136        C  0.49959932  0.12052740  0.25477252    -0.12700
C137        C  0.51195273  0.25098918  0.36250043    -0.14300
C138        C  0.48611888  0.24688834  0.38762669    -0.29500
H139        H  0.03532807  0.25573743  0.37346464     0.14700
H140        H  0.46057914  0.24119807  0.37787390     0.15300
C141        C  0.48614950  0.24444643  0.13800453    -0.14300
C142        C  0.51163604  0.25370361  0.11222599    -0.29500
H143        H  0.46044688  0.23685846  0.12876822     0.14700
H144        H  0.03744666  0.26000991  0.12231312     0.15300
C145        C  0.99379028  0.37500502  0.49579428    -0.11200
C146        C  0.99194492  0.34530885  0.49728336    -0.12700
C147        C  0.49646761  0.12620164  0.00761234    -0.11200
C148        C  0.49593212  0.15522876  0.00529688    -0.12700
O149        O  0.02218969  0.25733638  0.94162265    -0.72300
O150        O  0.01517256  0.25446962  0.55429703    -0.72300
O151        O  0.01451027  0.20821612  0.50206553    -0.72400
O152        O  0.02946516  0.30550465  0.99327208    -0.72500
O153        O  0.47151438  0.29171277  0.00285429    -0.72400
O154        O  0.46944508  0.19829206  0.50693757    -0.72400
O155        O  0.47658258  0.24615043  0.55836895    -0.72300
O156        O  0.46480132  0.24363587  0.95123129    -0.72400
Ni157      Ni  0.02992098  0.25922447  0.99493092     1.25400
Ni158      Ni  0.46868577  0.24440265  0.50508137     1.25400
C159        C  0.49068981  0.24961986  0.92884313     0.89900
C160        C  0.50636017  0.25344633  0.57107098     0.89800
C161        C  0.98633511  0.18588056  0.50424847     0.89800
C162        C  0.00215583  0.31399721  0.99751278     0.90000
O163        O  0.47269408  0.28602725  0.75270154    -0.72300
O164        O  0.47059743  0.19245272  0.75750744    -0.72300
O165        O  0.47720319  0.24103063  0.80863274    -0.72400
O166        O  0.46566834  0.23773715  0.70169605    -0.72500
O167        O  0.03871065  0.25745885  0.69428248    -0.72400
O168        O  0.03898205  0.25751132  0.80173929    -0.72400
O169        O  0.03657225  0.21014704  0.75012831    -0.72300
O170        O  0.03942212  0.30431814  0.74571458    -0.72400
Ni171      Ni  0.46954585  0.23876193  0.75549660     1.25400
Ni172      Ni  0.04039794  0.25781092  0.74793497     1.25400
C173        C  0.50091783  0.30817484  0.74716235     0.89900
C174        C  0.49816905  0.18435120  0.75314175     0.89800
C175        C  0.50687338  0.24880984  0.82148564     0.89800
C176        C  0.49145410  0.24475450  0.67915663     0.90000
O177        O  0.41147957  0.47450437  0.97960992    -0.78800
O178        O  0.06976943  0.48781812  0.99705228    -0.63500
O179        O  0.47258377  0.47724896  0.50986502    -1.10100
C180        C  0.49945903  0.09236034  0.51071965     1.08100
O181        O  0.08611541  0.03476505  0.52024155    -0.76700
O182        O  0.03141837  0.02972291  0.56680664    -0.64300
Ni183      Ni  0.44409970  0.44872291  0.97798231     1.34900
C184        C  0.00036273  0.02214329  0.57609068     0.86800
O185        O  0.01736952  0.43449790  0.01203367    -0.77200
O186        O  0.47105347  0.41707699  0.97409414    -0.87500
C187        C  0.09056526  0.50701259  0.50762180     0.86400
O188        O  0.46604825  0.47476993  0.93481891    -0.65700
O189        O  0.02151310  0.08654315  0.52929585    -0.85000
C190        C  0.49702751  0.48033135  0.92587352     0.87200
C191        C  0.99899657  0.41173424  0.99296523     1.08800
H192        H  0.03190402  0.03318015  0.96686632     0.40600
O193        O  0.02488960  0.02655936  0.99287043    -1.07600
O194        O  0.47765227  0.02698612  0.55494946    -0.64300
Ni195      Ni  0.47599121  0.02302327  0.50058573     1.26300
O196        O  0.02128385  0.47714290  0.94843150    -0.64500
O197        O  0.48137629  0.06994942  0.49113339    -0.76800
C198        C  0.40657498  0.99463854  0.99319683     0.86600
O199        O  0.42896762  0.01743008  0.50667670    -0.64000
Ni200      Ni  0.05120239  0.05748944  0.52376566     1.27400
Ni201      Ni  0.02241693  0.48151159  0.00266566     1.26100
H202        H  0.46558936  0.47037780  0.53581673     0.41200
O203        O  0.41146158  0.46127383  0.72738979    -0.78800
O204        O  0.06862297  0.48064837  0.74340707    -0.63500
O205        O  0.47484575  0.47006071  0.75652571    -1.10100
C206        C  0.50492629  0.08770596  0.75592991     1.08100
O207        O  0.08797591  0.02745010  0.77354209    -0.76700
O208        O  0.03201558  0.02367429  0.81750131    -0.64300
Ni209      Ni  0.44708951  0.43994058  0.72304109     1.34900
C210        C  0.00086670  0.01766040  0.82579927     0.86800
O211        O  0.01685309  0.42954745  0.76126863    -0.77200
O212        O  0.47752573  0.41224448  0.71661884    -0.87500
C213        C  0.09272229  0.50209478  0.75703579     0.86400
O214        O  0.46739715  0.46964865  0.68165480    -0.65700
O215        O  0.02614468  0.08177759  0.78034236    -0.85000
C216        C  0.49859925  0.47746235  0.67299252     0.87200
C217        C  0.99943763  0.40678487  0.74175679     1.08800
H218        H  0.03313358  0.03053288  0.71627848     0.40600
O219        O  0.02563228  0.02287112  0.74191102    -1.07600
O220        O  0.48084453  0.02360731  0.80160956    -0.64300
Ni221      Ni  0.47869880  0.01814158  0.74761982     1.26300
O222        O  0.01942000  0.47077984  0.69655769    -0.64500
O223        O  0.48572528  0.06517627  0.73738962    -0.76800
C224        C  0.40725241  0.99213878  0.74281318     0.86600
O225        O  0.43206103  0.01466928  0.75381503    -0.64000
Ni226      Ni  0.05430998  0.05164737  0.77574574     1.27400
Ni227      Ni  0.02214924  0.47607687  0.75064365     1.26100
H228        H  0.46771513  0.46256460  0.78229939     0.41200
O229        O  0.24434078  0.48196507  0.55585457    -0.72300
O230        O  0.24648090  0.48548328  0.94628951    -0.72300
O231        O  0.29034324  0.48216574  0.49994341    -0.72400
O232        O  0.19738058  0.47914068  0.50259853    -0.72500
O233        O  0.20869296  0.02520052  0.99603326    -0.72400
O234        O  0.30156676  0.02644544  0.99346721    -0.72400
O235        O  0.25353417  0.01951897  0.94142091    -0.72300
O236        O  0.25664981  0.03382069  0.54869910    -0.72400
Ni237      Ni  0.24348819  0.47899217  0.50141502     1.25400
Ni238      Ni  0.25564023  0.02777635  0.99436252     1.25400
C239        C  0.25141293  0.51048185  0.57154572     0.89900
C240        C  0.25398235  0.51394493  0.92748221     0.89800
C241        C  0.31485094  0.51293343  0.99820343     0.89800
C242        C  0.18871255  0.50657066  0.50113058     0.90000
O243        O  0.30318198  0.02664856  0.74379940    -0.72300
O244        O  0.21011877  0.02467033  0.74661801    -0.72300
O245        O  0.25812208  0.03109744  0.79863446    -0.72400
O246        O  0.25508505  0.02036623  0.69174169    -0.72500
O247        O  0.23948734  0.45994876  0.69903941    -0.72400
O248        O  0.24056363  0.46129999  0.80690495    -0.72400
O249        O  0.19387780  0.46175005  0.75456144    -0.72300
O250        O  0.28659253  0.46079573  0.75139815    -0.72400
Ni251      Ni  0.25713813  0.02768689  0.74484344     1.25400
Ni252      Ni  0.23958577  0.45895427  0.75310758     1.25400
C253        C  0.30937455  0.48893031  0.74895645     0.89900
C254        C  0.18704227  0.49025446  0.75320904     0.89800
C255        C  0.24841143  0.48930775  0.82317731     0.89800
C256        C  0.24702617  0.48752329  0.67893190     0.90000
C257        C  0.25476564  0.51567463  0.88553581    -0.14300
C258        C  0.24798556  0.48808784  0.86508211    -0.29500
H259        H  0.26110511  0.54041929  0.87115395     0.14700
H260        H  0.25931603  0.03577792  0.87138533     0.15300
C261        C  0.24599450  0.48539015  0.63721247    -0.14300
C262        C  0.25241353  0.51258803  0.61326795    -0.29500
H263        H  0.23956354  0.46046112  0.62592462     0.14700
H264        H  0.25827893  0.03788842  0.62191233     0.15300
C265        C  0.12517768  0.49594430  0.75581243    -0.11200
C266        C  0.15287055  0.49175629  0.75465953    -0.12700
C267        C  0.37448101  0.99743539  0.74551458    -0.11200
C268        C  0.34414124  0.48933712  0.74746307    -0.12700
C269        C  0.15357578  0.50481770  0.50227070    -0.11200
C270        C  0.12419776  0.50389321  0.50409267    -0.12700
C271        C  0.34934676  0.51229038  0.99702425    -0.11200
C272        C  0.37304947  0.99810966  0.99548541    -0.12700
C273        C  0.49044046  0.00573067  0.86310519    -0.14300
C274        C  0.50903509  0.49327854  0.88752269    -0.29500
H275        H  0.46297709  0.50100340  0.87072861     0.14700
H276        H  0.03360694  0.99436701  0.88032512     0.15300
C277        C  0.48715007  0.00415170  0.61429269    -0.14300
C278        C  0.51064976  0.49405158  0.63600811    -0.29500
H279        H  0.46129233  0.00196040  0.62305454     0.14700
H280        H  0.03489482  0.49406678  0.62790200     0.15300
C281        C  0.50184036  0.34310411  0.74492874    -0.11200
C282        C  0.00672716  0.37470072  0.74237551    -0.12700
C283        C  0.49796517  0.14948554  0.75434139    -0.11200
C284        C  0.50008206  0.12089068  0.75499682    -0.12700
C285        C  0.51168469  0.25128464  0.86260321    -0.14300
C286        C  0.48584781  0.24717479  0.88772734    -0.29500
H287        H  0.03929834  0.25795502  0.87354990     0.14700
H288        H  0.46030725  0.24148984  0.87797826     0.15300
C289        C  0.48615691  0.24453631  0.63800689    -0.14300
C290        C  0.51165810  0.25366807  0.61222083    -0.29500
H291        H  0.46046035  0.23698506  0.62874788     0.14700
H292        H  0.96062863  0.24098069  0.62863991     0.15300
C293        C  0.00302208  0.37825576  0.99534712    -0.11200
C294        C  0.00335107  0.34910685  0.99652235    -0.12700
C295        C  0.49617187  0.12598438  0.50769668    -0.11200
C296        C  0.49596750  0.15508805  0.50531997    -0.12700
O297        O  0.02213098  0.75687038  0.44178491    -0.72300
O298        O  0.03163570  0.76023876  0.04835070    -0.72300
O299        O  0.02495658  0.71224125  0.99705596    -0.72400
O300        O  0.02802478  0.80507348  0.49330763    -0.72500
O301        O  0.47146367  0.79154870  0.50343662    -0.72400
O302        O  0.47279256  0.69884118  0.00658854    -0.72400
O303        O  0.47842417  0.74635283  0.05810168    -0.72300
O304        O  0.46417073  0.74320227  0.45196988    -0.72400
Ni305      Ni  0.02949231  0.75893724  0.49506152     1.25400
Ni306      Ni  0.47133468  0.74493173  0.00491120     1.25400
C307        C  0.48972382  0.74927653  0.42915216     0.89900
C308        C  0.50792035  0.75374039  0.07136488     0.89800
C309        C  0.99703950  0.68969642  0.00285291     0.89800
C310        C  0.00032210  0.81291929  0.49753402     0.90000
O311        O  0.46935855  0.78464262  0.25252297    -0.72300
O312        O  0.46809484  0.69163005  0.25680516    -0.72300
O313        O  0.47435762  0.73980257  0.30852451    -0.72400
O314        O  0.46379067  0.73708180  0.20095358    -0.72500
O315        O  0.02171403  0.75302671  0.19150846    -0.72400
O316        O  0.03422892  0.75572019  0.29857951    -0.72400
O317        O  0.02786242  0.70785602  0.24674855    -0.72300
O318        O  0.02849773  0.80073191  0.24312818    -0.72400
Ni319      Ni  0.46689891  0.73771450  0.25506181     1.25400
Ni320      Ni  0.03006612  0.75481589  0.24464697     1.25400
C321        C  0.49730372  0.80712276  0.24717424     0.89900
C322        C  0.49565373  0.68359143  0.25258289     0.89800
C323        C  0.50407043  0.74778177  0.32144321     0.89800
C324        C  0.48997009  0.74443843  0.17888169     0.90000
O325        O  0.40934305  0.96894442  0.47842947    -0.78800
O326        O  0.06512756  0.98432414  0.49633808    -0.63500
O327        O  0.47387485  0.97630350  0.00942159    -1.10100
C328        C  0.50676979  0.59447071  0.00921698     1.08100
O329        O  0.08884357  0.53739237  0.02348688    -0.76700
O330        O  0.03246045  0.52909100  0.06870976    -0.64300
Ni331      Ni  0.44416053  0.94610478  0.47608197     1.34900
C332        C  0.00118169  0.52129820  0.07699723     0.86800
O333        O  0.01235584  0.93245418  0.51268989    -0.77200
O334        O  0.47358553  0.91709709  0.47143337    -0.87500
C335        C  0.09028623  0.00458263  0.00820283     0.86400
O336        O  0.46542837  0.97421313  0.43393712    -0.65700
O337        O  0.02256311  0.58644682  0.03305422    -0.85000
C338        C  0.49661930  0.98124803  0.42543466     0.87200
C339        C  0.99339854  0.90948898  0.49440541     1.08800
H340        H  0.03094286  0.53375595  0.46711464     0.40600
O341        O  0.02386621  0.52643569  0.49294356    -1.07600
O342        O  0.48314159  0.53043866  0.05440479    -0.64300
Ni343      Ni  0.48047659  0.52540776  0.00030601     1.26300
O344        O  0.01616617  0.97370905  0.44841062    -0.64500
O345        O  0.48805127  0.57235278  0.98990950    -0.76800
C346        C  0.40745742  0.50021795  0.49377970     0.86600
O347        O  0.43419339  0.52270964  0.00710924    -0.64000
Ni348      Ni  0.05310039  0.55869844  0.02729079     1.27400
Ni349      Ni  0.01813759  0.97936550  0.50236946     1.26100
H350        H  0.46660101  0.96872140  0.03513153     0.41200
O351        O  0.40777961  0.96504549  0.22867152    -0.78800
O352        O  0.06617804  0.98082143  0.24461993    -0.63500
O353        O  0.47099119  0.97034254  0.25739512    -1.10100
C354        C  0.50001161  0.58620923  0.25697377     1.08100
O355        O  0.08827364  0.52488936  0.27077767    -0.76700
O356        O  0.03354991  0.52445526  0.31539167    -0.64300
Ni357      Ni  0.44129063  0.94070445  0.22503868     1.34900
C358        C  0.00253511  0.51890588  0.32416016     0.86800
O359        O  0.01396426  0.92812438  0.25995752    -0.77200
O360        O  0.46928017  0.91021154  0.21944660    -0.87500
C361        C  0.08980494  0.00356950  0.25739450     0.86400
O362        O  0.46245189  0.96848510  0.18255225    -0.65700
O363        O  0.02862997  0.58222018  0.27604862    -0.85000
C364        C  0.49350556  0.97476861  0.17358331     0.87200
C365        C  0.99621663  0.90560015  0.24022619     1.08800
H366        H  0.03270162  0.52801133  0.21414107     0.40600
O367        O  0.02555782  0.52128065  0.24008525    -1.07600
O368        O  0.47783086  0.52082803  0.30138092    -0.64300
Ni369      Ni  0.47676957  0.51645845  0.24716097     1.26300
O370        O  0.01793337  0.97077670  0.19605759    -0.64500
O371        O  0.48175209  0.56344518  0.23782288    -0.76800
C372        C  0.40585725  0.48659731  0.24091492     0.86600
O373        O  0.42942099  0.51010863  0.25276427    -0.64000
Ni374      Ni  0.05561784  0.55061821  0.27230988     1.27400
Ni375      Ni  0.01910780  0.97499180  0.25034956     1.26100
H376        H  0.46400227  0.96361801  0.28338469     0.41200
O377        O  0.24232734  0.97630372  0.05921130    -0.72300
O378        O  0.23773276  0.96707486  0.45197150    -0.72300
O379        O  0.28711360  0.97069371  0.00454042    -0.72400
O380        O  0.19414955  0.96946319  0.00719331    -0.72500
O381        O  0.21060070  0.53530730  0.49890007    -0.72400
O382        O  0.30441488  0.53836160  0.49620417    -0.72400
O383        O  0.25745899  0.53687756  0.44362405    -0.72300
O384        O  0.26047267  0.54035704  0.05266910    -0.72400
Ni385      Ni  0.24012972  0.96807821  0.00626510     1.25400
Ni386      Ni  0.25805996  0.53913920  0.49743799     1.25400
C387        C  0.25009691  0.00621525  0.07120698     0.89900
C388        C  0.24493332  0.99306209  0.42920049     0.89800
C389        C  0.30853683  0.00037138  0.49823661     0.89800
C390        C  0.18628042  0.99719910  0.00210359     0.90000
O391        O  0.29972003  0.51461228  0.24827699    -0.72300
O392        O  0.20735941  0.51387751  0.25081953    -0.72300
O393        O  0.25319388  0.51293512  0.30412334    -0.72400
O394        O  0.25349033  0.51430203  0.19502752    -0.72500
O395        O  0.23931842  0.96552600  0.20246880    -0.72400
O396        O  0.24260252  0.97823379  0.30913470    -0.72400
O397        O  0.19458626  0.97134614  0.25704630    -0.72300
O398        O  0.28734597  0.97225663  0.25458713    -0.72400
Ni399      Ni  0.25396762  0.51593137  0.24949351     1.25400
Ni400      Ni  0.24045867  0.96985092  0.25621098     1.25400
C401        C  0.30982575  0.00019230  0.24844211     0.89900
C402        C  0.18678673  0.99909907  0.25194266     0.89800
C403        C  0.25041382  0.00818575  0.32104827     0.89800
C404        C  0.24607409  0.99126662  0.17931297     0.90000
C405        C  0.24377165  0.98795460  0.38816250    -0.14300
C406        C  0.25151346  0.01362054  0.36204250    -0.29500
H407        H  0.23646298  0.96219087  0.37925839     0.14700
H408        H  0.23905717  0.45791543  0.37916428     0.15300
C409        C  0.24468107  0.98588742  0.13833606    -0.14300
C410        C  0.25147518  0.01155123  0.11218994    -0.29500
H411        H  0.23788829  0.96009136  0.12952093     0.14700
H412        H  0.25972219  0.53777878  0.12593672     0.15300
C413        C  0.12329770  0.00001463  0.25503010    -0.11200
C414        C  0.15209866  0.99893540  0.25337304    -0.12700
C415        C  0.37188702  0.48862733  0.24462865    -0.11200
C416        C  0.34445704  0.00010919  0.24698477    -0.12700
C417        C  0.15157771  0.99712809  0.00356263    -0.11200
C418        C  0.12304897  0.99912051  0.00535597    -0.12700
C419        C  0.34314024  0.00018753  0.49699958    -0.11200
C420        C  0.37516668  0.50687244  0.49521150    -0.12700
C421        C  0.48735438  0.50248675  0.36269437    -0.14300
C422        C  0.50869954  0.99483948  0.38733018    -0.29500
H423        H  0.46266151  0.00264053  0.37057159     0.14700
H424        H  0.03558179  0.49614101  0.37897440     0.15300
C425        C  0.49182292  0.50730617  0.11381483    -0.14300
C426        C  0.50597329  0.99086284  0.13647833    -0.29500
H427        H  0.46598971  0.50553937  0.12230231     0.14700
H428        H  0.03502328  0.99522440  0.12800323     0.15300
C429        C  0.49717524  0.84177619  0.24478858    -0.11200
C430        C  0.00012500  0.87217516  0.24310299    -0.12700
C431        C  0.49501112  0.64862249  0.25358067    -0.11200
C432        C  0.49574246  0.61959240  0.25472126    -0.12700
C433        C  0.50933656  0.75032738  0.36249986    -0.14300
C434        C  0.48403881  0.74656058  0.38815720    -0.29500
H435        H  0.03915025  0.75752519  0.37193143     0.14700
H436        H  0.45832596  0.74093859  0.37896332     0.15300
C437        C  0.48578422  0.74457319  0.13756029    -0.14300
C438        C  0.51210653  0.75360204  0.11268625    -0.29500
H439        H  0.46037245  0.73733870  0.12741267     0.14700
H440        H  0.03736765  0.76106145  0.12119189     0.15300
C441        C  0.99848924  0.87640782  0.49590754    -0.11200
C442        C  0.00041219  0.84774916  0.49662409    -0.12700
C443        C  0.50268275  0.62783492  0.00746225    -0.11200
C444        C  0.50071001  0.65640702  0.00544788    -0.12700
O445        O  0.01915294  0.75716525  0.94159659    -0.72300
O446        O  0.03294905  0.75975671  0.54894652    -0.72300
O447        O  0.02689129  0.71181722  0.49763929    -0.72400
O448        O  0.02553896  0.80533118  0.99308471    -0.72500
O449        O  0.47411639  0.79217304  0.00276159    -0.72400
O450        O  0.46999028  0.69818576  0.50744225    -0.72400
O451        O  0.47684645  0.74610275  0.55872509    -0.72300
O452        O  0.46792247  0.74417403  0.95109746    -0.72400
Ni453      Ni  0.02730245  0.75930943  0.99463076     1.25400
Ni454      Ni  0.46862849  0.74430734  0.50572673     1.25400
C455        C  0.49382056  0.75041612  0.92880320     0.89900
C456        C  0.50665002  0.75356315  0.57119845     0.89800
C457        C  0.99884625  0.68940039  0.50306973     0.89800
C458        C  0.99779243  0.81297701  0.99785291     0.90000
O459        O  0.47231070  0.78547142  0.75297008    -0.72300
O460        O  0.47089399  0.69241698  0.75745598    -0.72300
O461        O  0.47824801  0.74093330  0.80878261    -0.72400
O462        O  0.46551967  0.73747410  0.70176168    -0.72500
O463        O  0.02054104  0.75315357  0.69201071    -0.72400
O464        O  0.03135463  0.75577913  0.79927081    -0.72400
O465        O  0.02550315  0.70782682  0.74760477    -0.72300
O466        O  0.02667595  0.80088728  0.74348648    -0.72400
Ni467      Ni  0.46976288  0.73851040  0.75564848     1.25400
Ni468      Ni  0.02800440  0.75488246  0.74530132     1.25400
C469        C  0.50021941  0.80789547  0.74700374     0.89900
C470        C  0.49834741  0.68430831  0.75260017     0.89800
C471        C  0.50816976  0.74893908  0.82109288     0.89800
C472        C  0.49124216  0.74464617  0.67904811     0.90000
O473        O  0.41085061  0.96849811  0.97851334    -0.78800
O474        O  0.06534069  0.98221410  0.99713370    -0.63500
O475        O  0.47231370  0.97597831  0.50939216    -1.10100
C476        C  0.50409449  0.59377366  0.50899286     1.08100
O477        O  0.08716747  0.53383923  0.52134840    -0.76700
O478        O  0.03197004  0.52712373  0.56774150    -0.64300
Ni479      Ni  0.44605072  0.94617924  0.97606319     1.34900
C480        C  0.00085058  0.51985838  0.57672764     0.86800
O481        O  0.01109630  0.93213294  0.01362112    -0.77200
O482        O  0.47589397  0.91759591  0.97131587    -0.87500
C483        C  0.08941870  0.00753883  0.50725686     0.86400
O484        O  0.46714838  0.97455721  0.93403661    -0.65700
O485        O  0.02306540  0.58504909  0.53276739    -0.85000
C486        C  0.49837364  0.98189494  0.92561829     0.87200
C487        C  0.99177146  0.90980752  0.99494871     1.08800
H488        H  0.03300383  0.53609583  0.96787373     0.40600
O489        O  0.02571825  0.52852241  0.99358811    -1.07600
O490        O  0.48126361  0.52947541  0.55435527    -0.64300
Ni491      Ni  0.47837021  0.52453846  0.50020165     1.26300
O492        O  0.01652752  0.97367378  0.94925986    -0.64500
O493        O  0.48540081  0.57146644  0.48988183    -0.76800
C494        C  0.40940822  0.50157797  0.99409711     0.86600
O495        O  0.43201340  0.52133010  0.50722457    -0.64000
Ni496      Ni  0.05245073  0.55627285  0.52602533     1.27400
Ni497      Ni  0.01872628  0.97920516  0.00322383     1.26100
H498        H  0.46508133  0.96836647  0.53511217     0.41200
O499        O  0.40960290  0.96473773  0.72951762    -0.78800
O500        O  0.06740981  0.98005181  0.74364165    -0.63500
O501        O  0.47306236  0.97081342  0.75779374    -1.10100
C502        C  0.50223534  0.58682822  0.75706436     1.08100
O503        O  0.08962342  0.52868141  0.77183244    -0.76700
O504        O  0.03445870  0.52674089  0.81616502    -0.64300
Ni505      Ni  0.44336796  0.94077630  0.72577706     1.34900
C506        C  0.00336183  0.51997558  0.82500421     0.86800
O507        O  0.01428224  0.92852682  0.75945801    -0.77200
O508        O  0.47167742  0.91064973  0.71994205    -0.87500
C509        C  0.09142142  0.00158780  0.75753525     0.86400
O510        O  0.46395186  0.96845313  0.68306365    -0.65700
O511        O  0.02759074  0.58357147  0.77639673    -0.85000
C512        C  0.49495826  0.97513619  0.67377695     0.87200
C513        C  0.99575980  0.90637473  0.73997997     1.08800
H514        H  0.03338890  0.52997723  0.71481307     0.40600
O515        O  0.02650735  0.52303252  0.74077811    -1.07600
O516        O  0.47959832  0.52157730  0.80161308    -0.64300
Ni517      Ni  0.47838674  0.51711567  0.74741205     1.26300
O518        O  0.01854575  0.97196438  0.69581545    -0.64500
O519        O  0.48370476  0.56413167  0.73805440    -0.76800
C520        C  0.40725990  0.48755243  0.74172199     0.86600
O521        O  0.43106113  0.51112545  0.75306252    -0.64000
Ni522      Ni  0.05584835  0.55315014  0.77295392     1.27400
Ni523      Ni  0.02066781  0.97560718  0.75023406     1.26100
H524        H  0.46627940  0.96412665  0.78384238     0.41200
O525        O  0.24147328  0.97802046  0.55879014    -0.72300
O526        O  0.23899390  0.96383316  0.95252103    -0.72300
O527        O  0.28583355  0.97249096  0.50379281    -0.72400
O528        O  0.19324672  0.97279074  0.50694163    -0.72500
O529        O  0.21392981  0.53979219  0.99974478    -0.72400
O530        O  0.30726775  0.54106714  0.99748872    -0.72400
O531        O  0.26102291  0.54160777  0.94448991    -0.72300
O532        O  0.25794231  0.53806545  0.55151116    -0.72400
Ni533      Ni  0.23901294  0.97060873  0.50573243     1.25400
Ni534      Ni  0.26117896  0.54271030  0.99851829     1.25400
C535        C  0.24980493  0.00770709  0.57133972     0.89900
C536        C  0.24584872  0.98960319  0.92941514     0.89800
C537        C  0.30947619  0.99874293  0.99849657     0.89800
C538        C  0.18583513  0.00081135  0.50227228     0.90000
O539        O  0.30195105  0.51700362  0.74754632    -0.72300
O540        O  0.21012452  0.51795361  0.75066308    -0.72300
O541        O  0.25629476  0.51744152  0.80368776    -0.72400
O542        O  0.25520569  0.51606805  0.69454382    -0.72500
O543        O  0.24104971  0.96455967  0.70167731    -0.72400
O544        O  0.24394231  0.97530945  0.80882237    -0.72400
O545        O  0.19604760  0.96879776  0.75660220    -0.72300
O546        O  0.28900441  0.97079378  0.75392326    -0.72400
Ni547      Ni  0.25647055  0.51913011  0.74895967     1.25400
Ni548      Ni  0.24203638  0.96785985  0.75561116     1.25400
C549        C  0.31123589  0.99897223  0.74840775     0.89900
C550        C  0.18794219  0.99643046  0.75208211     0.89800
C551        C  0.25140798  0.00505680  0.82131666     0.89800
C552        C  0.24744131  0.99070255  0.67910699     0.90000
C553        C  0.24485272  0.98428899  0.88839703    -0.14300
C554        C  0.25235730  0.01004125  0.86237824    -0.29500
H555        H  0.23786758  0.95853505  0.87945276     0.14700
H556        H  0.24158273  0.46338278  0.87956791     0.15300
C557        C  0.24572593  0.98615050  0.63797444    -0.14300
C558        C  0.25170296  0.01229740  0.61245999    -0.29500
H559        H  0.23921730  0.96056269  0.62851198     0.14700
H560        H  0.25872676  0.53751201  0.62456744     0.15300
C561        C  0.12447542  0.99705661  0.75501566    -0.11200
C562        C  0.15320561  0.99585723  0.75341803    -0.12700
C563        C  0.37340521  0.48992566  0.74534831    -0.11200
C564        C  0.34594566  0.99930759  0.74710658    -0.12700
C565        C  0.15124262  0.00123650  0.50353871    -0.11200
C566        C  0.12265668  0.00313107  0.50492409    -0.12700
C567        C  0.34420427  0.99904945  0.99707807    -0.11200
C568        C  0.37721207  0.50844169  0.99578235    -0.12700
C569        C  0.48908432  0.50333673  0.86297982    -0.14300
C570        C  0.51045555  0.99570704  0.88759108    -0.29500
H571        H  0.46433010  0.00333360  0.87090568     0.14700
H572        H  0.03787415  0.49898711  0.87954658     0.15300
C573        C  0.49102738  0.50723616  0.61390940    -0.14300
C574        C  0.50677702  0.99097120  0.63638925    -0.29500
H575        H  0.46519430  0.50510651  0.62272475     0.14700
H576        H  0.03476808  0.99692384  0.62759678     0.15300
C577        C  0.50017270  0.84259239  0.74477300    -0.11200
C578        C  0.99885966  0.87264531  0.74258196    -0.12700
C579        C  0.49761971  0.64933869  0.75366091    -0.11200
C580        C  0.49820423  0.62027905  0.75482821    -0.12700
C581        C  0.51385496  0.75165326  0.86208804    -0.14300
C582        C  0.48855611  0.74787846  0.88774585    -0.29500
H583        H  0.03568321  0.75770859  0.87229968     0.14700
H584        H  0.46286603  0.74225314  0.87846808     0.15300
C585        C  0.48608929  0.74449069  0.63792212    -0.14300
C586        C  0.51180393  0.75371340  0.61232464    -0.29500
H587        H  0.46043644  0.73691333  0.62853352     0.14700
H588        H  0.03744709  0.76035897  0.62202016     0.15300
C589        C  0.99593008  0.87640122  0.99619590    -0.11200
C590        C  0.99767368  0.84770908  0.99690902    -0.12700
C591        C  0.49972095  0.62704710  0.50730346    -0.11200
C592        C  0.49772693  0.65562577  0.50547091    -0.12700
O593        O  0.52060482  0.25715327  0.44159401    -0.72300
O594        O  0.53206159  0.26057276  0.04854159    -0.72300
O595        O  0.52496722  0.21232584  0.99750719    -0.72400
O596        O  0.52721515  0.30573901  0.49271318    -0.72500
O597        O  0.96131958  0.28807327  0.50016698    -0.72400
O598        O  0.97108736  0.19816251  0.00642165    -0.72400
O599        O  0.97773977  0.24591736  0.05806970    -0.72300
O600        O  0.95889778  0.24071061  0.44855330    -0.72400
Ni601      Ni  0.52826494  0.25942892  0.49473000     1.25400
Ni602      Ni  0.97031387  0.24449688  0.00477536     1.25400
C603        C  0.98637898  0.24710035  0.42903808     0.89900
C604        C  0.00732408  0.25298027  0.07118695     0.89800
C605        C  0.49676363  0.19016154  0.00308260     0.89800
C606        C  0.49964448  0.31384218  0.49708116     0.90000
O607        O  0.97104812  0.28603098  0.25292936    -0.72300
O608        O  0.96834739  0.19267326  0.25702275    -0.72300
O609        O  0.97565103  0.24084687  0.30866977    -0.72400
O610        O  0.96445151  0.23834937  0.20134244    -0.72500
O611        O  0.52128167  0.25187156  0.19176541    -0.72400
O612        O  0.53299365  0.25451680  0.29899532    -0.72400
O613        O  0.52627472  0.20643910  0.24737426    -0.72300
O614        O  0.52848718  0.29972262  0.24323517    -0.72400
Ni615      Ni  0.96790515  0.23895603  0.25536379     1.25400
Ni616      Ni  0.52924691  0.25357146  0.24501821     1.25400
C617        C  0.99917689  0.30821498  0.24752005     0.89900
C618        C  0.99565071  0.18417129  0.25277663     0.89800
C619        C  0.00531378  0.24832100  0.32175255     0.89800
C620        C  0.99048507  0.24519036  0.17910096     0.90000
O621        O  0.90984243  0.47074139  0.47678088    -0.78800
O622        O  0.56575425  0.48350750  0.49647926    -0.63500
O623        O  0.97526526  0.47616931  0.00904399    -1.10100
C624        C  0.00472118  0.09329729  0.00879776     1.08100
O625        O  0.58738608  0.03750547  0.02421413    -0.76700
O626        O  0.53087344  0.02911334  0.06923934    -0.64300
Ni627      Ni  0.94351399  0.44655164  0.47456997     1.34900
C628        C  0.49957416  0.02128399  0.07742551     0.86800
O629        O  0.51208361  0.43300788  0.51289403    -0.77200
O630        O  0.97168378  0.41642383  0.46997022    -0.87500
C631        C  0.59218349  0.50572443  0.00801382     0.86400
O632        O  0.96580328  0.47452946  0.43281439    -0.65700
O633        O  0.52107467  0.08653218  0.03362326    -0.85000
C634        C  0.99695198  0.48054556  0.42451453     0.87200
C635        C  0.49289078  0.41048854  0.49433400     1.08800
H636        H  0.53007825  0.03561177  0.46801569     0.40600
O637        O  0.52295203  0.02812132  0.49378303    -1.07600
O638        O  0.98118446  0.02939376  0.05426324    -0.64300
Ni639      Ni  0.97855581  0.02419273  0.00016602     1.26300
O640        O  0.51697199  0.47459407  0.44867901    -0.64500
O641        O  0.98611010  0.07109767  0.98950383    -0.76800
C642        C  0.90507753  0.99607211  0.49330929     0.86600
O643        O  0.93229238  0.02153690  0.00685860    -0.64000
Ni644      Ni  0.55162326  0.05880078  0.02792542     1.27400
Ni645      Ni  0.51912012  0.48004598  0.50267310     1.26100
H646        H  0.96802077  0.46861921  0.03476923     0.41200
O647        O  0.90971833  0.46616944  0.22870076    -0.78800
O648        O  0.56764298  0.48072217  0.24429192    -0.63500
O649        O  0.97291987  0.47161320  0.25744560    -1.10100
C650        C  0.99877518  0.08642323  0.25734754     1.08100
O651        O  0.58630855  0.02364707  0.27072264    -0.76700
O652        O  0.53173230  0.02339413  0.31548915    -0.64300
Ni653      Ni  0.94323331  0.44180212  0.22525618     1.34900
C654        C  0.50075203  0.01782818  0.32443003     0.86800
O655        O  0.51538701  0.42795461  0.25944353    -0.77200
O656        O  0.97123885  0.41126649  0.21989332    -0.87500
C657        C  0.59122763  0.50351023  0.25708947     0.86400
O658        O  0.96437100  0.46937428  0.18263067    -0.65700
O659        O  0.52673476  0.08108224  0.27619306    -0.85000
C660        C  0.99541640  0.47561366  0.17364698     0.87200
C661        C  0.49760634  0.40545244  0.23969808     1.08800
H662        H  0.53064644  0.02690602  0.21423042     0.40600
O663        O  0.52357028  0.02009690  0.24017468    -1.07600
O664        O  0.97648886  0.02101004  0.30188577    -0.64300
Ni665      Ni  0.97536566  0.01664087  0.24765114     1.26300
O666        O  0.51947019  0.47066732  0.19561163    -0.64500
O667        O  0.98040154  0.06365488  0.23828367    -0.76800
C668        C  0.90442243  0.98674616  0.24152773     0.86600
O669        O  0.92800760  0.01031442  0.25325793    -0.64000
Ni670      Ni  0.55368901  0.04943392  0.27232606     1.27400
Ni671      Ni  0.52054348  0.47484397  0.24990222     1.26100
H672        H  0.96590850  0.46499898  0.28345164     0.41200
O673        O  0.74387187  0.47694818  0.05911382    -0.72300
O674        O  0.73968823  0.46706434  0.45171630    -0.72300
O675        O  0.78857982  0.47107899  0.00451085    -0.72400
O676        O  0.69571583  0.47014469  0.00709654    -0.72500
O677        O  0.71119268  0.03732091  0.49893401    -0.72400
O678        O  0.80390113  0.03636316  0.49578483    -0.72400
O679        O  0.75721852  0.03679742  0.44343435    -0.72300
O680        O  0.75922382  0.03994891  0.05267150    -0.72400
Ni681      Ni  0.74163746  0.46860922  0.00620710     1.25400
Ni682      Ni  0.75819565  0.03915749  0.49723074     1.25400
C683        C  0.75171392  0.50688335  0.07103911     0.89900
C684        C  0.74639614  0.49310602  0.42903595     0.89800
C685        C  0.80986927  0.50173998  0.49826420     0.89800
C686        C  0.68795834  0.49792605  0.00190686     0.90000
O687        O  0.79805489  0.01447889  0.24841433    -0.72300
O688        O  0.70554107  0.01324235  0.25057531    -0.72300
O689        O  0.75130088  0.01259839  0.30406239    -0.72400
O690        O  0.75192166  0.01387010  0.19496963    -0.72500
O691        O  0.74103147  0.46616681  0.20224367    -0.72400
O692        O  0.74427026  0.47864258  0.30893083    -0.72400
O693        O  0.69624137  0.47170654  0.25687617    -0.72300
O694        O  0.78911879  0.47296876  0.25432287    -0.72400
Ni695      Ni  0.75222079  0.01554666  0.24943287     1.25400
Ni696      Ni  0.74217012  0.47038411  0.25598920     1.25400
C697        C  0.81152782  0.50097217  0.24825086     0.89900
C698        C  0.68832680  0.49940566  0.25183956     0.89800
C699        C  0.75195004  0.50855865  0.32093567     0.89800
C700        C  0.74771328  0.49194207  0.17914491     0.90000
C701        C  0.74544628  0.48812251  0.38797378    -0.14300
C702        C  0.75294400  0.51387420  0.36195407    -0.29500
H703        H  0.73849540  0.46238571  0.37896673     0.14700
H704        H  0.73666824  0.95766347  0.37919959     0.15300
C705        C  0.74633461  0.48660373  0.13816284    -0.14300
C706        C  0.75310797  0.51226577  0.11201532    -0.29500
H707        H  0.73956962  0.46080925  0.12934138     0.14700
H708        H  0.75845672  0.03731443  0.12591224     0.15300
C709        C  0.62475130  0.50003204  0.25481696    -0.11200
C710        C  0.65359691  0.49909222  0.25324197    -0.12700
C711        C  0.87044965  0.98879385  0.24518447    -0.11200
C712        C  0.84623185  0.50104658  0.24678660    -0.12700
C713        C  0.65332399  0.49799590  0.00335487    -0.11200
C714        C  0.62487400  0.50016678  0.00515256    -0.12700
C715        C  0.84460769  0.50232017  0.49691960    -0.11200
C716        C  0.87261484  0.00220397  0.49454852    -0.12700
C717        C  0.98607505  0.00198104  0.36293498    -0.14300
C718        C  0.00958964  0.49443453  0.38664998    -0.29500
H719        H  0.96421092  0.50383874  0.36998507     0.14700
H720        H  0.53480771  0.99717720  0.37958169     0.15300
C721        C  0.98998517  0.00674776  0.11392970    -0.14300
C722        C  0.00780634  0.49141956  0.13638531    -0.29500
H723        H  0.96412823  0.00491059  0.12237670     0.14700
H724        H  0.53671262  0.49537190  0.12765216     0.15300
C725        C  0.99944143  0.34300262  0.24521509    -0.11200
C726        C  0.50133166  0.37195781  0.24264853    -0.12700
C727        C  0.99444193  0.14905802  0.25377187    -0.11200
C728        C  0.99475671  0.11990476  0.25495332    -0.12700
C729        C  0.01000899  0.25026015  0.36308914    -0.14300
C730        C  0.98374847  0.24570509  0.38754467    -0.29500
H731        H  0.53749439  0.25667710  0.37224650     0.14700
H732        H  0.95856496  0.24027500  0.37674381     0.15300
C733        C  0.98589108  0.24500047  0.13778584    -0.14300
C734        C  0.01191276  0.25316779  0.11250231    -0.29500
H735        H  0.96035687  0.23815897  0.12797598     0.14700
H736        H  0.53733863  0.26129172  0.12146258     0.15300
C737        C  0.49773357  0.37730336  0.49524686    -0.11200
C738        C  0.49984997  0.34870843  0.49588821    -0.12700
C739        C  0.00042254  0.12660406  0.00702747    -0.11200
C740        C  0.99839693  0.15517413  0.00506578    -0.12700
O741        O  0.52037538  0.25735732  0.94165382    -0.72300
O742        O  0.53214516  0.26046008  0.54853044    -0.72300
O743        O  0.52511467  0.21216339  0.49753294    -0.72400
O744        O  0.52710627  0.30587462  0.99282798    -0.72500
O745        O  0.97381864  0.29191098  0.00261101    -0.72400
O746        O  0.95846487  0.19390382  0.50457310    -0.72400
O747        O  0.95919260  0.24076211  0.55600900    -0.72300
O748        O  0.96660342  0.24377366  0.95079757    -0.72400
Ni749      Ni  0.52811382  0.25957978  0.99476544     1.25400
Ni750      Ni  0.95749300  0.24041063  0.50235751     1.25400
C751        C  0.99253077  0.24985918  0.92853024     0.89900
C752        C  0.98693437  0.24738280  0.57297158     0.89800
C753        C  0.49689067  0.19001725  0.50307728     0.89800
C754        C  0.49957461  0.31401946  0.99728071     0.90000
O755        O  0.98337665  0.28999981  0.74821507    -0.72300
O756        O  0.98056676  0.19693460  0.75272362    -0.72300
O757        O  0.98302374  0.24396172  0.80518591    -0.72400
O758        O  0.98273090  0.24375398  0.69598085    -0.72500
O759        O  0.52123126  0.25205007  0.69185981    -0.72400
O760        O  0.53278726  0.25479514  0.79913493    -0.72400
O761        O  0.52620088  0.20669201  0.74758403    -0.72300
O762        O  0.52836404  0.29990148  0.74330004    -0.72400
Ni763      Ni  0.98039731  0.24313460  0.75063547     1.25400
Ni764      Ni  0.52912540  0.25379139  0.74514840     1.25400
C765        C  0.01154954  0.31233779  0.74603365     0.89900
C766        C  0.00788710  0.18820599  0.75190206     0.89800
C767        C  0.01149652  0.25111471  0.82124739     0.89800
C768        C  0.01097241  0.25083956  0.67731299     0.90000
O769        O  0.91219342  0.46845373  0.97822316    -0.78800
O770        O  0.56724994  0.48346469  0.99678147    -0.63500
O771        O  0.97218949  0.47533265  0.50840252    -1.10100
C772        C  0.99838987  0.09141033  0.50853372     1.08100
O773        O  0.58633946  0.03690388  0.52291714    -0.76700
O774        O  0.53040357  0.02855720  0.56864722    -0.64300
Ni775      Ni  0.94734630  0.44605944  0.97574255     1.34900
C776        C  0.49920087  0.02074298  0.57730839     0.86800
O777        O  0.51316910  0.43331881  0.01316649    -0.77200
O778        O  0.97713144  0.41743621  0.97096469    -0.87500
C779        C  0.59056202  0.50602355  0.50750631     0.86400
O780        O  0.96843814  0.47441872  0.93371761    -0.65700
O781        O  0.52028829  0.08595726  0.53365268    -0.85000
C782        C  0.99966389  0.48187397  0.92527081     0.87200
C783        C  0.49384088  0.41099035  0.99450583     1.08800
H784        H  0.53163530  0.03630725  0.96839572     0.40600
O785        O  0.52430743  0.02870315  0.99409121    -1.07600
O786        O  0.97838711  0.02742243  0.55375426    -0.64300
Ni787      Ni  0.97565991  0.02211279  0.49966914     1.26300
O788        O  0.51845974  0.47509363  0.94896653    -0.64500
O789        O  0.98095913  0.06864294  0.48903738    -0.76800
C790        C  0.90750078  0.00039064  0.99389437     0.86600
O791        O  0.92918262  0.01754020  0.50690167    -0.64000
Ni792      Ni  0.55071667  0.05824923  0.52725050     1.27400
Ni793      Ni  0.52068115  0.48041844  0.00298727     1.26100
H794        H  0.96468798  0.46767311  0.53403579     0.41200
O795        O  0.91168882  0.46340181  0.73010043    -0.78800
O796        O  0.56883179  0.48075691  0.74362145    -0.63500
O797        O  0.97547506  0.47173856  0.75833409    -1.10100
C798        C  0.00535614  0.08880579  0.75775259     1.08100
O799        O  0.58797575  0.02485700  0.77124363    -0.76700
O800        O  0.53338659  0.02457334  0.81583259    -0.64300
Ni801      Ni  0.94661280  0.44069367  0.72654782     1.34900
C802        C  0.50237895  0.01871131  0.82474955     0.86800
O803        O  0.51642581  0.42823553  0.75915225    -0.77200
O804        O  0.97631363  0.41165159  0.72099506    -0.87500
C805        C  0.59252492  0.50316391  0.75683469     0.86400
O806        O  0.96638623  0.46847651  0.68351196    -0.65700
O807        O  0.52801771  0.08199079  0.77614084    -0.85000
C808        C  0.99744221  0.47606160  0.67422575     0.87200
C809        C  0.49834791  0.40583196  0.73955432     1.08800
H810        H  0.53223235  0.02782025  0.71447497     0.40600
O811        O  0.52523838  0.02094843  0.74042706    -1.07600
O812        O  0.97985962  0.02349684  0.80248109    -0.64300
Ni813      Ni  0.97879197  0.01918287  0.74823534     1.26300
O814        O  0.52014773  0.47121485  0.69534876    -0.64500
O815        O  0.98581825  0.06660747  0.73893110    -0.76800
C816        C  0.90725251  0.99118238  0.74270471     0.86600
O817        O  0.93157822  0.01455594  0.75351251    -0.64000
Ni818      Ni  0.55520397  0.05049940  0.77254123     1.27400
Ni819      Ni  0.52180828  0.47516156  0.74971711     1.26100
H820        H  0.96884818  0.46500284  0.78440846     0.41200
O821        O  0.74272741  0.47778671  0.55861010    -0.72300
O822        O  0.74046604  0.46423749  0.95249021    -0.72300
O823        O  0.78769687  0.47349720  0.50372899    -0.72400
O824        O  0.69462898  0.47150038  0.50655402    -0.72500
O825        O  0.71256700  0.03971897  0.99998315    -0.72400
O826        O  0.80575395  0.04045074  0.99727737    -0.72400
O827        O  0.75938526  0.04132567  0.94450485    -0.72300
O828        O  0.75829315  0.03817350  0.55129896    -0.72400
Ni829      Ni  0.74067498  0.47047097  0.50550742     1.25400
Ni830      Ni  0.75975269  0.04236683  0.99852988     1.25400
C831        C  0.75036506  0.50744883  0.57124851     0.89900
C832        C  0.74738078  0.48995246  0.92930674     0.89800
C833        C  0.81100964  0.49907191  0.99841190     0.89800
C834        C  0.68657095  0.49917460  0.50194711     0.90000
O835        O  0.80042429  0.01901239  0.74774319    -0.72300
O836        O  0.70746595  0.01598546  0.75040008    -0.72300
O837        O  0.75393844  0.01739350  0.80366469    -0.72400
O838        O  0.75346247  0.01617986  0.69448838    -0.72500
O839        O  0.74113940  0.46432096  0.70165482    -0.72400
O840        O  0.74469528  0.47529041  0.80876418    -0.72400
O841        O  0.69670529  0.46979625  0.75670401    -0.72300
O842        O  0.78919027  0.46952064  0.75373396    -0.72400
Ni843      Ni  0.75431790  0.01915749  0.74892780     1.25400
Ni844      Ni  0.74241199  0.46772778  0.75557696     1.25400
C845        C  0.81195393  0.49733129  0.74808701     0.89900
C846        C  0.68925139  0.49777434  0.75211161     0.89800
C847        C  0.75284967  0.50507637  0.82115558     0.89800
C848        C  0.74798771  0.49043522  0.67901511     0.90000
C849        C  0.74628216  0.48451558  0.88831321    -0.14300
C850        C  0.75401039  0.51018207  0.86219364    -0.29500
H851        H  0.73901266  0.45873359  0.87947237     0.14700
H852        H  0.74068792  0.96323240  0.87940859     0.15300
C853        C  0.74609410  0.48584714  0.63789414    -0.14300
C854        C  0.75207532  0.51199630  0.61238213    -0.29500
H855        H  0.73951694  0.46025681  0.62843933     0.14700
H856        H  0.75822015  0.03767510  0.62441417     0.15300
C857        C  0.62591455  0.49929205  0.75469253    -0.11200
C858        C  0.65464912  0.49796324  0.75334529    -0.12700
C859        C  0.87361653  0.99429030  0.74624488    -0.11200
C860        C  0.84654873  0.49690956  0.74681651    -0.12700
C861        C  0.65186087  0.49883511  0.50324249    -0.11200
C862        C  0.62332757  0.50071295  0.50482224    -0.12700
C863        C  0.84570016  0.49924816  0.99698075    -0.11200
C864        C  0.87535907  0.00734379  0.99547488    -0.12700
C865        C  0.98822624  0.00376683  0.86366166    -0.14300
C866        C  0.01169588  0.49617881  0.88738648    -0.29500
H867        H  0.96537266  0.50354518  0.87104962     0.14700
H868        H  0.53658828  0.99818009  0.87983259     0.15300
C869        C  0.98886223  0.00671761  0.61373999    -0.14300
C870        C  0.00894279  0.49149410  0.63657939    -0.29500
H871        H  0.96291213  0.00415051  0.62242092     0.14700
H872        H  0.53650525  0.49623322  0.62724507     0.15300
C873        C  0.01113173  0.34698229  0.74382423    -0.11200
C874        C  0.50163566  0.37220795  0.74256305    -0.12700
C875        C  0.00594095  0.15291043  0.75300279    -0.11200
C876        C  0.00407186  0.12320923  0.75449752    -0.12700
C877        C  0.01411662  0.25250731  0.86274214    -0.14300
C878        C  0.98784769  0.24792725  0.88719106    -0.29500
H879        H  0.53722338  0.25697169  0.87235901     0.14700
H880        H  0.96253047  0.24243275  0.87680808     0.15300
C881        C  0.01262991  0.25176829  0.63557561    -0.14300
C882        C  0.98528241  0.24645384  0.61470882    -0.29500
H883        H  0.03728427  0.25724123  0.62164579     0.14700
H884        H  0.53735462  0.26121917  0.62147985     0.15300
C885        C  0.49818593  0.37762433  0.99549736    -0.11200
C886        C  0.49991869  0.34891013  0.99615253    -0.12700
C887        C  0.99112195  0.12350441  0.50789996    -0.11200
C888        C  0.98674326  0.15123332  0.50645178    -0.12700
O889        O  0.51964541  0.75728851  0.44146241    -0.72300
O890        O  0.53409965  0.76110223  0.04929293    -0.72300
O891        O  0.52853260  0.71354415  0.99771852    -0.72400
O892        O  0.52698774  0.80580167  0.49279547    -0.72500
O893        O  0.97235103  0.79037705  0.50266107    -0.72400
O894        O  0.96934525  0.69744781  0.00713861    -0.72400
O895        O  0.97612271  0.74515484  0.05875629    -0.72300
O896        O  0.96649961  0.74242273  0.45099701    -0.72400
Ni897      Ni  0.52812909  0.75970948  0.49459703     1.25400
Ni898      Ni  0.96777467  0.74336340  0.00561680     1.25400
C899        C  0.99250921  0.74883886  0.42877182     0.89900
C900        C  0.00601228  0.75293730  0.07112644     0.89800
C901        C  0.50058693  0.69106293  0.00306500     0.89800
C902        C  0.49952973  0.81390210  0.49765380     0.90000
O903        O  0.97288686  0.78594029  0.25321523    -0.72300
O904        O  0.97230020  0.69284839  0.25718279    -0.72300
O905        O  0.97869310  0.74101653  0.30867155    -0.72400
O906        O  0.96620161  0.73794443  0.20191861    -0.72500
O907        O  0.51946619  0.75182580  0.19214493    -0.72400
O908        O  0.52996788  0.75401824  0.29914862    -0.72400
O909        O  0.52376793  0.70600965  0.24749119    -0.72300
O910        O  0.52509867  0.79934484  0.24365129    -0.72400
Ni911      Ni  0.97053896  0.73887184  0.25563835     1.25400
Ni912      Ni  0.52655503  0.75325310  0.24533528     1.25400
C913        C  0.00080449  0.80848425  0.24741881     0.89900
C914        C  0.00004625  0.68520175  0.25241181     0.89800
C915        C  0.00847589  0.74916861  0.32121936     0.89800
C916        C  0.99182363  0.74524716  0.17914069     0.90000
O917        O  0.90817354  0.96947556  0.47853524    -0.78800
O918        O  0.56673592  0.98705606  0.49723971    -0.63500
O919        O  0.97225640  0.97688351  0.01021785    -1.10100
C920        C  0.00161069  0.59257290  0.01007021     1.08100
O921        O  0.59001457  0.53307143  0.02164384    -0.76700
O922        O  0.53534669  0.52967207  0.06774459    -0.64300
Ni923      Ni  0.94195824  0.94502350  0.47738876     1.34900
C924        C  0.50429377  0.52339871  0.07671066     0.86800
O925        O  0.51409887  0.93405635  0.51225629    -0.77200
O926        O  0.97022662  0.91461548  0.47392351    -0.87500
C927        C  0.59194537  0.01156439  0.00937999     0.86400
O928        O  0.96332662  0.97143413  0.43416998    -0.65700
O929        O  0.52855264  0.58795030  0.03082712    -0.85000
C930        C  0.99442250  0.97820269  0.42532242     0.87200
C931        C  0.49557798  0.91136177  0.49323744     1.08800
H932        H  0.53155822  0.53406672  0.46646218     0.40600
O933        O  0.52476887  0.52737689  0.49250898    -1.07600
O934        O  0.97986802  0.52740109  0.05425715    -0.64300
Ni935      Ni  0.97869292  0.52317820  0.99996587     1.26300
O936        O  0.51819391  0.97660557  0.44869657    -0.64500
O937        O  0.98385119  0.57004774  0.99034846    -0.76800
C938        C  0.90639731  0.49660663  0.49278170     0.86600
O939        O  0.93162551  0.51736298  0.00569501    -0.64000
Ni940      Ni  0.55652214  0.55743643  0.02525541     1.27400
Ni941      Ni  0.51941233  0.98106881  0.50289889     1.26100
H942        H  0.96511342  0.97014942  0.03616112     0.41200
O943        O  0.90895058  0.96073078  0.22683625    -0.78800
O944        O  0.56361112  0.97546227  0.24317906    -0.63500
O945        O  0.97207970  0.96963217  0.25672696    -1.10100
C946        C  0.00606027  0.58836764  0.25533383     1.08100
O947        O  0.58695323  0.52965045  0.27177403    -0.76700
O948        O  0.53065805  0.52361630  0.31624218    -0.64300
Ni949      Ni  0.94470925  0.93945052  0.22301896     1.34900
C950        C  0.49943325  0.51628303  0.32466116     0.86800
O951        O  0.50976908  0.92580956  0.26037642    -0.77200
O952        O  0.97526333  0.91172267  0.21724176    -0.87500
C953        C  0.58838820  0.99658227  0.25621916     0.86400
O954        O  0.96533721  0.96907400  0.18160752    -0.65700
O955        O  0.52192843  0.58057332  0.27894640    -0.85000
C956        C  0.99661615  0.97687472  0.17331925     0.87200
C957        C  0.49106765  0.90369471  0.24105210     1.08800
H958        H  0.53120481  0.52943473  0.21514602     0.40600
O959        O  0.52393157  0.52185479  0.24085677    -1.07600
O960        O  0.98129092  0.52451172  0.30104213    -0.64300
Ni961      Ni  0.97908898  0.51896738  0.24708089     1.26300
O962        O  0.51466291  0.96773414  0.19588637    -0.64500
O963        O  0.98672627  0.56603949  0.23667246    -0.76800
C964        C  0.90752289  0.49358992  0.24212713     0.86600
O965        O  0.93247466  0.51596449  0.25317473    -0.64000
Ni966      Ni  0.55176149  0.55198033  0.27420967     1.27400
Ni967      Ni  0.51732860  0.97275303  0.24998751     1.26100
H968        H  0.96479425  0.96205630  0.28244095     0.41200
O969        O  0.74429815  0.98380827  0.05531508    -0.72300
O970        O  0.74148426  0.98065588  0.44666713    -0.72300
O971        O  0.79043077  0.98424207  0.99952055    -0.72400
O972        O  0.69807220  0.98351701  0.00206286    -0.72500
O973        O  0.70879874  0.52735576  0.49643640    -0.72400
O974        O  0.80175823  0.52936999  0.49374930    -0.72400
O975        O  0.75385858  0.52285259  0.44153267    -0.72300
O976        O  0.75845697  0.53262208  0.04788100    -0.72400
Ni977      Ni  0.74382340  0.98219197  0.00084716     1.25400
Ni978      Ni  0.75576721  0.53029844  0.49474556     1.25400
C979        C  0.75176344  0.01187733  0.07187579     0.89900
C980        C  0.74936979  0.00878542  0.42716997     0.89800
C981        C  0.81073869  0.00786060  0.49714747     0.89800
C982        C  0.69014786  0.01133808  0.00158553     0.90000
O983        O  0.80365386  0.52870577  0.24316175    -0.72300
O984        O  0.71068569  0.52745789  0.24580062    -0.72300
O985        O  0.75880004  0.53432792  0.29782865    -0.72400
O986        O  0.75547863  0.52185423  0.19113878    -0.72500
O987        O  0.73729306  0.95773222  0.19767818    -0.72400
O988        O  0.73674421  0.95647397  0.30585929    -0.72400
O989        O  0.69050008  0.95703552  0.25286097    -0.72300
O990        O  0.78383523  0.95828113  0.25060259    -0.72400
Ni991      Ni  0.75767078  0.53008176  0.24408432     1.25400
Ni992      Ni  0.73658655  0.95537579  0.25182997     1.25400
C993        C  0.80614053  0.98673904  0.24901885     0.89900
C994        C  0.68292862  0.98517580  0.25214802     0.89800
C995        C  0.74379271  0.98413613  0.32286854     0.89800
C996        C  0.74465528  0.98578500  0.17844000     0.90000
C997        C  0.74979699  0.00999672  0.38526534    -0.14300
C998        C  0.74301143  0.98240724  0.36481535    -0.29500
H999        H  0.75620303  0.03470003  0.37077554     0.14700
H1000       H  0.75992093  0.53962835  0.37089776     0.15300
C1001       C  0.74452407  0.98486414  0.13662467    -0.14300
C1002       C  0.75197113  0.01277053  0.11368920    -0.29500
H1003       H  0.73805403  0.96031767  0.12440720     0.14700
H1004       H  0.75988255  0.53806239  0.12082870     0.15300
C1005       C  0.62058045  0.98970830  0.25455303    -0.11200
C1006       C  0.64843768  0.98583781  0.25332331    -0.12700
C1007       C  0.87476038  0.49905316  0.24498562    -0.11200
C1008       C  0.84109786  0.98785609  0.24745130    -0.12700
C1009       C  0.65524125  0.01039262  0.00331420    -0.11200
C1010       C  0.62591415  0.00952581  0.00568659    -0.12700
C1011       C  0.84491269  0.00636799  0.49570161    -0.11200
C1012       C  0.87334054  0.50112991  0.49531278    -0.12700
C1013       C  0.99019993  0.50555608  0.36227690    -0.14300
C1014       C  0.00623212  0.99182443  0.38714086    -0.29500
H1015       H  0.95989453  0.99916294  0.37077242     0.14700
H1016       H  0.53348497  0.49487757  0.37938690     0.15300
C1017       C  0.98866503  0.50488432  0.11393852    -0.14300
C1018       C  0.00913013  0.99329051  0.13637906    -0.29500
H1019       H  0.96277392  0.50295747  0.12231689     0.14700
H1020       H  0.53180915  0.99263822  0.12799429     0.15300
C1021       C  0.00103364  0.84325895  0.24535230    -0.11200
C1022       C  0.49518110  0.87034090  0.24278215    -0.12700
C1023       C  0.00016605  0.65046963  0.25335858    -0.11200
C1024       C  0.00190891  0.62177700  0.25407750    -0.12700
C1025       C  0.01354977  0.75141126  0.36233410    -0.14300
C1026       C  0.98774854  0.74658080  0.38762783    -0.29500
H1027       H  0.53502653  0.75594902  0.37177756     0.14700
H1028       H  0.96216655  0.74048651  0.37796813     0.15300
C1029       C  0.98623338  0.74471209  0.13810726    -0.14300
C1030       C  0.01160079  0.75347442  0.11216000    -0.29500
H1031       H  0.96046647  0.73712459  0.12907566     0.14700
H1032       H  0.53751829  0.76083699  0.12283376     0.15300
C1033       C  0.49963356  0.87792022  0.49545189    -0.11200
C1034       C  0.50024357  0.84886814  0.49660375    -0.12700
C1035       C  0.99771565  0.62600368  0.00718480    -0.11200
C1036       C  0.99681181  0.65492164  0.00492865    -0.12700
O1037       O  0.52353289  0.75839321  0.94172273    -0.72300
O1038       O  0.53237216  0.76074183  0.54848427    -0.72300
O1039       O  0.52558868  0.71274884  0.49727039    -0.72400
O1040       O  0.52978929  0.80656087  0.99344606    -0.72500
O1041       O  0.96997599  0.79032241  0.00351308    -0.72400
O1042       O  0.97118391  0.69732152  0.50678504    -0.72400
O1043       O  0.97732058  0.74505840  0.55825515    -0.72300
O1044       O  0.96361656  0.74245908  0.95168398    -0.72400
Ni1045     Ni  0.53099057  0.76047505  0.99518503     1.25400
Ni1046     Ni  0.96985320  0.74332410  0.50496630     1.25400
C1047       C  0.98937102  0.74901328  0.92904628     0.89900
C1048       C  0.00697894  0.75264570  0.57123125     0.89800
C1049       C  0.49768122  0.69032205  0.50323640     0.89800
C1050       C  0.50222719  0.81459495  0.99766735     0.90000
O1051       O  0.97096834  0.78639317  0.75262823    -0.72300
O1052       O  0.96982929  0.69313425  0.75695436    -0.72300
O1053       O  0.97572283  0.74133385  0.80847840    -0.72400
O1054       O  0.96491233  0.73845792  0.70131589    -0.72500
O1055       O  0.52104548  0.75210377  0.69152157    -0.72400
O1056       O  0.53372249  0.75500857  0.79827519    -0.72400
O1057       O  0.52641768  0.70665571  0.74681342    -0.72300
O1058       O  0.52790897  0.80002754  0.74279868    -0.72400
Ni1059     Ni  0.96836510  0.73927222  0.75520163     1.25400
Ni1060     Ni  0.52926343  0.75390131  0.74451877     1.25400
C1061       C  0.99901380  0.80880970  0.74720010     0.89900
C1062       C  0.99753099  0.68528557  0.75273275     0.89800
C1063       C  0.00534365  0.74936186  0.82149385     0.89800
C1064       C  0.99088336  0.74556901  0.67903262     0.90000
O1065       O  0.90953371  0.97325466  0.97954073    -0.78800
O1066       O  0.56838552  0.98806077  0.99751128    -0.63500
O1067       O  0.97130338  0.97515713  0.50954663    -1.10100
C1068       C  0.00207043  0.59182859  0.51031862     1.08100
O1069       O  0.58821485  0.53342021  0.52081646    -0.76700
O1070       O  0.53386034  0.52973803  0.56724173    -0.64300
Ni1071     Ni  0.94220316  0.94754383  0.97798890     1.34900
C1072       C  0.50285305  0.52306359  0.57652015     0.86800
O1073       O  0.51606136  0.93472134  0.01244958    -0.77200
O1074       O  0.96920343  0.91595556  0.97423236    -0.87500
C1075       C  0.59053808  0.01062220  0.50858839     0.86400
O1076       O  0.96426543  0.97372413  0.93491403    -0.65700
O1077       O  0.52617405  0.58754969  0.53034171    -0.85000
C1078       C  0.99528144  0.97928198  0.92614524     0.87200
C1079       C  0.49781199  0.91196027  0.99328780     1.08800
H1080       H  0.53380443  0.53452596  0.96691238     0.40600
O1081       O  0.52681244  0.52780417  0.99290199    -1.07600
O1082       O  0.97926891  0.52624360  0.55449471    -0.64300
Ni1083     Ni  0.97715414  0.52259629  0.50007481     1.26300
O1084       O  0.51997473  0.97734063  0.94889526    -0.64500
O1085       O  0.98354398  0.56967623  0.49084385    -0.76800
C1086       C  0.90799042  0.49461101  0.99294064     0.86600
O1087       O  0.93041091  0.51815132  0.50666097    -0.64000
Ni1088     Ni  0.55446585  0.55740379  0.52453133     1.27400
Ni1089     Ni  0.52103738  0.98170596  0.00311644     1.26100
H1090       H  0.96442818  0.96822015  0.53551280     0.41200
O1091       O  0.91065058  0.96435398  0.72898387    -0.78800
O1092       O  0.56581665  0.97688050  0.74304850    -0.63500
O1093       O  0.97395628  0.97176782  0.75737208    -1.10100
C1094       C  0.00442206  0.58870114  0.75591025     1.08100
O1095       O  0.58845107  0.52922246  0.77190802    -0.76700
O1096       O  0.53236217  0.52397191  0.81638359    -0.64300
Ni1097     Ni  0.94536912  0.94192588  0.72429590     1.34900
C1098       C  0.50116969  0.51693386  0.82487872     0.86800
O1099       O  0.51244344  0.92673671  0.76040723    -0.77200
O1100       O  0.97475541  0.91315108  0.71754201    -0.87500
C1101       C  0.59036613  0.99797921  0.75652097     0.86400
O1102       O  0.96584095  0.97107927  0.68257968    -0.65700
O1103       O  0.52422341  0.58109046  0.77887333    -0.85000
C1104       C  0.99695966  0.97834911  0.67358877     0.87200
C1105       C  0.49376291  0.90443028  0.74128484     1.08800
H1106       H  0.53271917  0.52982129  0.71521669     0.40600
O1107       O  0.52548558  0.52220606  0.74092861    -1.07600
O1108       O  0.98162532  0.52447318  0.80190895    -0.64300
Ni1109     Ni  0.97967015  0.51882217  0.74794753     1.26300
O1110       O  0.51655422  0.96872483  0.69593327    -0.64500
O1111       O  0.98545515  0.56573507  0.73763417    -0.76800
C1112       C  0.90838307  0.49063130  0.74307436     0.86600
O1113       O  0.93267592  0.51385935  0.75396813    -0.64000
Ni1114     Ni  0.55364084  0.55207414  0.77424000     1.27400
Ni1115     Ni  0.51946114  0.97366220  0.75008740     1.26100
H1116       H  0.96688292  0.96444946  0.78320221     0.41200
O1117       O  0.74257497  0.98205445  0.55580901    -0.72300
O1118       O  0.74460103  0.98520008  0.94621787    -0.72300
O1119       O  0.78765784  0.98015951  0.49969602    -0.72400
O1120       O  0.69582814  0.98111313  0.50280304    -0.72500
O1121       O  0.71042921  0.52586743  0.99576073    -0.72400
O1122       O  0.80319817  0.52681831  0.99330564    -0.72400
O1123       O  0.75518046  0.51990538  0.94121752    -0.72300
O1124       O  0.75675510  0.53359374  0.54868098    -0.72400
Ni1125     Ni  0.74130937  0.97898168  0.50139490     1.25400
Ni1126     Ni  0.75732001  0.52829287  0.99413947     1.25400
C1127       C  0.75075541  0.01060269  0.57141326     0.89900
C1128       C  0.75216219  0.01368543  0.92745472     0.89800
C1129       C  0.81315444  0.01222668  0.99792277     0.89800
C1130       C  0.68840855  0.00918909  0.50138231     0.90000
O1131       O  0.80454115  0.52535137  0.74341947    -0.72300
O1132       O  0.71195604  0.52565358  0.74655732    -0.72300
O1133       O  0.76005023  0.53106465  0.79838588    -0.72400
O1134       O  0.75631898  0.52012143  0.69156605    -0.72500
O1135       O  0.73986127  0.96007937  0.69883697    -0.72400
O1136       O  0.74034843  0.96127316  0.80672092    -0.72400
O1137       O  0.69339053  0.95978946  0.75414352    -0.72300
O1138       O  0.78720847  0.96284587  0.75144484    -0.72400
Ni1139     Ni  0.75877519  0.52753310  0.74462404     1.25400
Ni1140     Ni  0.73974650  0.95901015  0.75290860     1.25400
C1141       C  0.80909491  0.99158448  0.74921167     0.89900
C1142       C  0.68526610  0.98764958  0.75277024     0.89800
C1143       C  0.74706352  0.98924075  0.82307704     0.89800
C1144       C  0.74638876  0.98766138  0.67880042     0.90000
C1145       C  0.75280864  0.01547739  0.88551095    -0.14300
C1146       C  0.74654823  0.98794582  0.86498536    -0.29500
H1147       H  0.75875259  0.04023315  0.87118791     0.14700
H1148       H  0.76130770  0.53594589  0.87109830     0.15300
C1149       C  0.74538255  0.98555005  0.63707986    -0.14300
C1150       C  0.75179128  0.01274405  0.61313131    -0.29500
H1151       H  0.73907139  0.96062432  0.62578485     0.14700
H1152       H  0.75858431  0.53758303  0.62184766     0.15300
C1153       C  0.62265119  0.99131033  0.75511163    -0.11200
C1154       C  0.65061590  0.98771896  0.75401975    -0.12700
C1155       C  0.87513919  0.49502653  0.74542220    -0.11200
C1156       C  0.84423367  0.99334595  0.74806952    -0.12700
C1157       C  0.65364518  0.00879347  0.50287305    -0.11200
C1158       C  0.62438773  0.00823055  0.50498151    -0.12700
C1159       C  0.84757261  0.01137008  0.99668321    -0.11200
C1160       C  0.87450080  0.49817008  0.99531916    -0.12700
C1161       C  0.99154507  0.50635081  0.86318429    -0.14300
C1162       C  0.00761648  0.99264372  0.88803260    -0.29500
H1163       H  0.96223255  0.00205489  0.87133566     0.14700
H1164       H  0.53511667  0.49551812  0.87973219     0.15300
C1165       C  0.98896773  0.50376937  0.61402790    -0.14300
C1166       C  0.00883739  0.99443943  0.63628856    -0.29500
H1167       H  0.96303494  0.50127992  0.62271498     0.14700
H1168       H  0.53261166  0.99310951  0.62757305     0.15300
C1169       C  0.99943162  0.84363136  0.74490165    -0.11200
C1170       C  0.49815968  0.87116530  0.74295341    -0.12700
C1171       C  0.99743733  0.65045341  0.75365398    -0.11200
C1172       C  0.99934834  0.62178997  0.75438928    -0.12700
C1173       C  0.01010176  0.75161363  0.86263836    -0.14300
C1174       C  0.98429911  0.74677491  0.88793110    -0.29500
H1175       H  0.53956797  0.75727842  0.87128173     0.14700
H1176       H  0.95869902  0.74066006  0.87833246     0.15300
C1177       C  0.98601586  0.74501797  0.63784224    -0.14300
C1178       C  0.01184722  0.75319969  0.61242137    -0.29500
H1179       H  0.96041586  0.73785937  0.62824339     0.14700
H1180       H  0.53745697  0.76129049  0.62171310     0.15300
C1181       C  0.50210074  0.87858418  0.99552419    -0.11200
C1182       C  0.50285738  0.84956137  0.99666323    -0.12700
C1183       C  0.99898607  0.62556222  0.50770167    -0.11200
C1184       C  0.99842718  0.65457923  0.50537127    -0.12700
loop_ 
_geom_bond_atom_site_label_1 
_geom_bond_atom_site_label_2 
_geom_bond_distance 
_geom_bond_site_symmetry_2 
_ccdc_geom_bond_type 
O1           Ni9   1.939       .  S
O1          C603   1.286   1_455  A
O2         Ni157   1.923   1_554  S
O2          C604   1.282       .  A
O3         Ni157   1.911       .  S
O3           C13   1.278   1_456  A
O4           Ni9   1.908       .  S
O4           C14   1.276   1_455  A
O5         Ni158   1.914       .  S
O5          C606   1.279       .  A
O6          Ni10   1.913       .  S
O6          C605   1.278       .  A
O7          Ni10   1.923       .  S
O7           C12   1.283       .  A
O8         Ni158   1.923       .  S
O8           C11   1.282       .  A
Ni9         O150   1.936       .  S
Ni9         O151   1.904       .  S
Ni9        Ni750   2.391   1_455  S
Ni10        O153   1.915       .  S
Ni10        O156   1.923   1_554  S
Ni10       Ni749   2.392   1_554  S
C11         O593   1.281       .  A
C11         C138   1.479       .  S
C12         O594   1.280       .  A
C12         C142   1.478       .  S
C13         O598   1.280       .  A
C13         C740   1.433       .  S
C14         O597   1.283       .  A
C14         C146   1.437       .  S
O15         Ni23   1.919       .  S
O15          C25   1.280       .  A
O16         Ni23   1.922       .  S
O16          C26   1.280       .  A
O17         Ni23   1.917       .  S
O17          C27   1.281       .  A
O18         Ni23   1.917       .  S
O18          C28   1.280       .  A
O19         Ni24   1.920       .  S
O19         C620   1.282   1_455  A
O20         Ni24   1.923       .  S
O20         C619   1.280       .  A
O21         Ni24   1.922       .  S
O21         C618   1.281   1_455  A
O22         Ni24   1.921       .  S
O22         C617   1.280   1_455  A
Ni23       Ni616   2.392       .  S
Ni24       Ni615   2.391   1_455  S
C25         O614   1.278       .  A
C25         C133   1.433       .  S
C26         O613   1.279       .  A
C26         C135   1.436       .  S
C27         O612   1.282       .  A
C27         C137   1.479       .  S
C28         O611   1.283       .  A
C28         C141   1.478       .  S
O29         Ni35   1.933       .  S
O29         C346   1.272       .  A
O30         Ni53   1.916       .  S
O30         C187   1.271       .  A
O31          H54   0.966       .  S
O31        Ni183   1.918   1_554  S
O31        Ni793   1.910       .  S
O31        Ni343   1.918       .  S
C32          O49   1.265   1_554  A
C32         O633   1.269       .  A
C32         C147   1.432       .  S
O33         Ni52   1.925       .  S
O33         C335   1.270       .  A
O34         Ni52   1.900       .  S
O34          C36   1.271       .  A
Ni35         O38   1.941       .  S
Ni35         O40   1.898       .  S
Ni35        O179   1.918       .  S
C36         O638   1.275   1_455  A
C36         C721   1.467   1_455  S
O37         Ni53   1.915       .  S
O37          C43   1.270   1_455  A
O38         C635   1.272       .  A
C39         O178   1.269   1_554  A
C39         O329   1.269       .  A
C39         C122   1.435       .  S
O40          C42   1.271       .  A
O41         Ni52   1.941       .  S
O41         C624   1.271       .  A
C42         O640   1.274       .  A
C42         C126   1.466       .  S
C43         O630   1.269       .  A
C43         C145   1.436       .  S
H44          O45   0.966       .  S
O45        Ni349   1.925   1_545  S
O45        Ni787   1.904   1_455  S
O45        Ni200   1.921       .  S
O46         Ni47   1.939       .  S
O46         C628   1.275       .  A
Ni47         O51   1.903       .  S
Ni47         O49   1.905   1_554  S
Ni47        O327   1.922   1_545  S
Ni47        O785   1.907   1_554  S
O48         Ni53   1.938       .  S
O48         C634   1.275   1_455  A
C50         O325   1.270       .  A
C50         O199   1.266   1_565  A
C50         C124   1.434       .  S
O51         C198   1.266   1_544  A
Ni52        O193   1.920   1_554  S
Ni53        O771   1.911   1_455  S
Ni53        O341   1.927       .  S
O55         Ni61   1.919       .  S
O55         C372   1.269       .  A
O56         Ni79   1.897       .  S
O56          C65   1.263       .  A
O57          H80   0.966       .  S
O57         Ni61   1.919       .  S
O57        Ni671   1.907       .  S
O57        Ni369   1.922       .  S
C58          O75   1.266       .  A
C58         O659   1.272       .  A
C58         C136   1.436       .  S
O59         Ni78   1.925       .  S
O59         C361   1.270       .  A
O60         Ni78   1.898       .  S
O60          C62   1.271   1_455  A
Ni61         O64   1.933       .  S
Ni61         O66   1.902       .  S
C62         O664   1.275       .  A
C62         C717   1.466       .  S
O63         Ni79   1.898       .  S
O63          C69   1.262   1_455  A
O64         C661   1.269       .  A
C65         O355   1.271       .  A
C65         C117   1.435       .  S
O66          C68   1.272       .  A
O67         Ni78   1.933       .  S
O67         C650   1.270   1_455  A
C68         O666   1.275       .  A
C68         C130   1.466       .  S
C69         O656   1.271       .  A
C69         C134   1.433       .  S
H70          O71   0.966       .  S
O71         Ni78   1.917       .  S
O71        Ni375   1.921   1_545  S
O71        Ni665   1.912   1_455  S
O72         Ni73   1.937       .  S
O72         C654   1.274       .  A
Ni73         O77   1.905       .  S
Ni73         O75   1.903       .  S
Ni73        O353   1.922   1_545  S
Ni73        O663   1.910       .  S
O74         Ni79   1.939       .  S
O74         C660   1.275   1_455  A
C76          O77   1.267   1_565  A
C76         O351   1.270       .  A
C76         C119   1.434       .  S
Ni79        O649   1.905   1_455  S
Ni79        O367   1.918       .  S
O81         Ni89   1.934       .  S
O81          C91   1.286       .  A
O82        Ni237   1.937       .  S
O82          C92   1.286       .  A
O83         Ni89   1.908   1_556  S
O83         C241   1.277       .  A
O84         Ni89   1.909       .  S
O84          C94   1.277       .  A
O85         Ni90   1.917       .  S
O85         C538   1.280       .  A
O86         Ni90   1.916       .  S
O86         C389   1.279       .  A
O87         Ni90   1.923       .  S
O87         C388   1.283   1_545  A
O88        Ni238   1.920   1_554  S
O88         C387   1.281       .  A
Ni89        O230   1.933   1_554  S
Ni89       Ni534   2.391   1_554  S
Ni90        O236   1.922       .  S
Ni90       Ni533   2.392   1_545  S
C91         O384   1.279       .  A
C91         C114   1.484       .  S
C92         O383   1.279       .  A
C92         C109   1.483       .  S
C93         O231   1.277       .  A
C93         O382   1.282       .  A
C93         C123   1.435       .  S
C94         O529   1.282   1_554  A
C94         C121   1.435       .  S
O95        Ni103   1.918       .  S
O95         C401   1.279       .  A
O96        Ni103   1.918       .  S
O96         C402   1.280   1_545  A
O97        Ni103   1.919       .  S
O97         C403   1.281       .  A
O98        Ni103   1.919       .  S
O98         C404   1.282   1_545  A
O99        Ni104   1.916       .  S
O99         C108   1.279       .  A
O100       Ni104   1.917       .  S
O100        C107   1.279       .  A
O101       Ni104   1.927       .  S
O101        C106   1.282       .  A
O102       Ni104   1.926       .  S
O102        C105   1.282       .  A
Ni103      Ni400   2.392   1_545  S
Ni104      Ni399   2.391       .  S
C105        O391   1.276       .  A
C105        C120   1.435       .  S
C106        O392   1.277       .  A
C106        C118   1.434       .  S
C107        O393   1.286       .  A
C107        C110   1.484       .  S
C108        O394   1.286       .  A
C108        C113   1.484       .  S
C109        C110   1.343       .  D
C109        H111   1.087       .  S
C110        H408   1.087       .  S
H112        C406   1.087       .  S
C113        C114   1.344       .  D
C113        H115   1.087       .  S
C114        H412   1.087       .  S
H116        C410   1.087       .  S
C117        C118   1.206       .  T
C119        C416   1.205   1_565  T
C120        C415   1.206       .  T
C121        C122   1.206       .  T
C123        C420   1.206       .  T
C124        C419   1.205   1_565  T
C125        C654   1.466       .  S
C125        C422   1.341   1_545  D
C125        H423   1.087       .  S
C126        C421   1.341       .  D
C126       H1016   1.087       .  S
H127        C421   1.087       .  S
H128       C1014   1.087       .  S
C129        C628   1.467       .  S
C129        C426   1.341   1_545  D
C129        H131   1.087       .  S
C130        C425   1.341       .  D
C130        H724   1.087       .  S
H132        C722   1.087       .  S
C133        C726   1.204       .  T
C134        C725   1.204       .  T
C135        C136   1.206       .  T
C137        C138   1.347       .  D
C137        H731   1.087       .  S
C138        H140   1.087       .  S
H139        C729   1.086       .  S
C141        C142   1.344       .  D
C141        H143   1.087       .  S
C142        H736   1.087       .  S
H144        C734   1.086       .  S
C145        C146   1.207       .  T
C147        C148   1.204       .  T
C148        C605   1.433       .  S
O149       Ni157   1.924       .  S
O149        C751   1.284   1_455  A
O150        C752   1.287   1_455  A
O151        C161   1.276   1_455  A
O152       Ni157   1.915       .  S
O152        C162   1.278       .  A
O153        C754   1.279   1_554  A
O154       Ni158   1.911       .  S
O154        C753   1.278       .  A
O155       Ni158   1.924       .  S
O155        C160   1.283       .  A
O156        C159   1.282       .  A
Ni157      Ni602   2.391   1_456  S
Ni158      Ni601   2.392       .  S
C159        O741   1.281       .  A
C159        C286   1.479       .  S
C160        O742   1.280       .  A
C160        C290   1.479       .  S
C161        O746   1.283       .  A
C161        C888   1.434       .  S
C162        O745   1.281   1_456  A
C162        C294   1.436       .  S
O163       Ni171   1.919       .  S
O163        C173   1.281       .  A
O164       Ni171   1.923       .  S
O164        C174   1.281       .  A
O165       Ni171   1.918       .  S
O165        C175   1.281       .  A
O166       Ni171   1.918       .  S
O166        C176   1.280       .  A
O167       Ni172   1.904       .  S
O167        C768   1.276       .  A
O168       Ni172   1.905       .  S
O168        C767   1.277       .  A
O169       Ni172   1.930       .  S
O169        C766   1.284       .  A
O170       Ni172   1.930       .  S
O170        C765   1.283       .  A
Ni171      Ni764   2.392       .  S
Ni172      Ni763   2.391   1_455  S
C173        O762   1.278       .  A
C173        C281   1.432       .  S
C174        O761   1.279       .  A
C174        C283   1.436       .  S
C175        O760   1.282       .  A
C175        C285   1.479       .  S
C176        O759   1.283       .  A
C176        C289   1.479       .  S
O177       Ni183   1.933       .  S
O177        C494   1.272       .  A
O178       Ni201   1.911   1_556  S
O179        H202   0.966       .  S
O179       Ni645   1.909       .  S
O179       Ni491   1.918       .  S
C180        O197   1.265       .  A
C180        O781   1.268       .  A
C180        C295   1.431       .  S
O181       Ni200   1.928       .  S
O181        C483   1.271       .  A
O182       Ni200   1.900       .  S
O182        C184   1.271       .  A
Ni183       O186   1.940       .  S
Ni183       O188   1.898       .  S
C184        O786   1.275   1_455  A
C184        C869   1.467   1_455  S
O185       Ni201   1.910       .  S
O185        C191   1.268   1_454  A
O186        C783   1.272       .  A
C187        O477   1.268       .  A
C187        C270   1.435       .  S
O188        C190   1.271       .  A
O189       Ni200   1.947       .  S
O189        C772   1.273   1_455  A
C190        O788   1.274       .  A
C190        C274   1.466       .  S
C191        O778   1.270       .  A
C191        C293   1.436   1_655  S
H192        O193   0.966       .  S
O193       Ni497   1.922   1_546  S
O193       Ni639   1.905   1_456  S
O194       Ni195   1.941       .  S
O194        C776   1.276       .  A
Ni195       O199   1.904       .  S
Ni195       O197   1.905       .  S
Ni195       O475   1.920   1_545  S
Ni195       O637   1.907       .  S
O196       Ni201   1.938   1_556  S
O196        C782   1.275   1_455  A
C198        O473   1.269       .  A
C198        C272   1.434       .  S
Ni201       O623   1.911   1_455  S
Ni201       O489   1.922   1_554  S
O203       Ni209   1.917       .  S
O203        C520   1.268       .  A
O204       Ni227   1.892       .  S
O204        C213   1.262       .  A
O205        H228   0.966       .  S
O205       Ni209   1.919       .  S
O205       Ni819   1.907       .  S
O205       Ni517   1.922       .  S
C206        O223   1.266       .  A
C206        O807   1.273       .  A
C206        C284   1.437       .  S
O207       Ni226   1.923       .  S
O207        C509   1.269       .  A
O208       Ni226   1.899       .  S
O208        C210   1.271       .  A
Ni209       O212   1.932       .  S
Ni209       O214   1.900       .  S
C210        O812   1.275   1_455  A
C210        C865   1.466   1_455  S
O211       Ni227   1.896       .  S
O211        C217   1.261   1_455  A
O212        C809   1.268       .  A
C213        O503   1.271       .  A
C213        C265   1.433       .  S
O214        C216   1.272       .  A
O215       Ni226   1.930       .  S
O215        C798   1.269       .  A
C216        O814   1.276       .  A
C216        C278   1.467       .  S
C217        O804   1.273       .  A
C217        C282   1.435   1_655  S
H218        O219   0.966       .  S
O219       Ni523   1.917   1_545  S
O219       Ni813   1.911   1_455  S
O219       Ni226   1.917       .  S
O220       Ni221   1.936       .  S
O220        C802   1.274       .  A
Ni221       O225   1.904       .  S
Ni221       O223   1.903       .  S
Ni221       O501   1.923   1_545  S
Ni221       O811   1.909       .  S
O222       Ni227   1.940       .  S
O222        C808   1.275   1_455  A
C224        O499   1.270       .  A
C224        O225   1.266   1_565  A
C224        C267   1.433       .  S
Ni227       O797   1.904   1_455  S
Ni227       O515   1.915       .  S
O229       Ni237   1.938       .  S
O229        C239   1.287       .  A
O230        C240   1.286       .  A
O231       Ni237   1.908       .  S
O232       Ni237   1.910       .  S
O232        C242   1.276       .  A
O233       Ni238   1.917       .  S
O233        C390   1.280   1_546  A
O234       Ni238   1.916       .  S
O234        C537   1.279   1_545  A
O235       Ni238   1.920       .  S
O235        C536   1.282   1_545  A
O236        C535   1.282       .  A
Ni237      Ni386   2.390       .  S
Ni238      Ni385   2.392   1_546  S
C239        O532   1.279       .  A
C239        C262   1.485       .  S
C240        O531   1.279       .  A
C240        C257   1.484       .  S
C241        O530   1.282       .  A
C241        C271   1.435       .  S
C242        O381   1.283       .  A
C242        C269   1.436       .  S
O243       Ni251   1.917       .  S
O243        C549   1.279   1_545  A
O244       Ni251   1.916       .  S
O244        C550   1.280   1_545  A
O245       Ni251   1.917       .  S
O245        C551   1.280       .  A
O246       Ni251   1.918       .  S
O246        C552   1.282   1_545  A
O247       Ni252   1.915       .  S
O247        C256   1.279       .  A
O248       Ni252   1.913       .  S
O248        C255   1.279       .  A
O249       Ni252   1.926       .  S
O249        C254   1.282       .  A
O250       Ni252   1.926       .  S
O250        C253   1.283       .  A
Ni251      Ni548   2.392   1_545  S
Ni252      Ni547   2.391       .  S
C253        O539   1.276       .  A
C253        C268   1.434       .  S
C254        O540   1.276       .  A
C254        C266   1.432       .  S
C255        O541   1.286       .  A
C255        C258   1.483       .  S
C256        O542   1.287       .  A
C256        C261   1.485       .  S
C257        C258   1.343       .  D
C257        H259   1.087       .  S
C258        H556   1.087       .  S
H260        C554   1.087       .  S
C261        C262   1.343       .  D
C261        H263   1.087       .  S
C262        H560   1.087       .  S
H264        C558   1.087       .  S
C265        C266   1.204       .  T
C267        C564   1.204       .  T
C268        C563   1.206       .  T
C269        C270   1.206       .  T
C271        C568   1.206       .  T
C272        C567   1.205       .  T
C273        C802   1.466       .  S
C273        C570   1.341   1_545  D
C273        H571   1.087       .  S
C274        C569   1.341       .  D
C274       H1164   1.087       .  S
H275        C569   1.087       .  S
H276       C1162   1.087       .  S
C277        C776   1.467       .  S
C277        C574   1.342   1_545  D
C277        H279   1.087       .  S
C278        C573   1.342       .  D
C278        H872   1.087       .  S
H280        C870   1.087       .  S
C281        C874   1.204       .  T
C282        C873   1.206       .  T
C283        C284   1.207       .  T
C285        C286   1.347       .  D
C285        H879   1.087       .  S
C286        H288   1.087       .  S
H287        C877   1.087       .  S
C289        C290   1.344       .  D
C289        H291   1.087       .  S
C290        H884   1.087       .  S
H292        C882   1.087       .  S
C293        C294   1.207       .  T
C295        C296   1.204       .  T
C296        C753   1.432       .  S
O297       Ni305   1.920       .  S
O297        C899   1.282   1_455  A
O298       Ni453   1.917   1_554  S
O298        C900   1.280       .  A
O299       Ni453   1.918       .  S
O299        C309   1.280   1_456  A
O300       Ni305   1.921       .  S
O300        C310   1.280       .  A
O301       Ni454   1.921       .  S
O301        C902   1.281       .  A
O302       Ni306   1.919       .  S
O302        C901   1.280       .  A
O303       Ni306   1.914       .  S
O303        C308   1.281       .  A
O304       Ni454   1.919       .  S
O304        C307   1.280       .  A
Ni305       O446   1.919       .  S
Ni305       O447   1.918       .  S
Ni305     Ni1046   2.392   1_455  S
Ni306       O449   1.921       .  S
Ni306       O452   1.916   1_554  S
Ni306     Ni1045   2.392   1_554  S
C307        O889   1.284       .  A
C307        C434   1.480       .  S
C308        O890   1.283       .  A
C308        C438   1.478       .  S
C309        O894   1.278       .  A
C309       C1036   1.432       .  S
C310        O893   1.279   1_455  A
C310        C442   1.436       .  S
O311       Ni319   1.911       .  S
O311        C321   1.278       .  A
O312       Ni319   1.916       .  S
O312        C322   1.278       .  A
O313       Ni319   1.927       .  S
O313        C323   1.284       .  A
O314       Ni319   1.925       .  S
O314        C324   1.283       .  A
O315       Ni320   1.922       .  S
O315        C916   1.283   1_455  A
O316       Ni320   1.923       .  S
O316        C915   1.282       .  A
O317       Ni320   1.915       .  S
O317        C914   1.279       .  A
O318       Ni320   1.913       .  S
O318        C913   1.278       .  A
Ni319      Ni912   2.392       .  S
Ni320      Ni911   2.392   1_455  S
C321        O910   1.280       .  A
C321        C429   1.432       .  S
C322        O909   1.281       .  A
C322        C431   1.436       .  S
C323        O908   1.280       .  A
C323        C433   1.479       .  S
C324        O907   1.281       .  A
C324        C437   1.478       .  S
O325       Ni331   1.925       .  S
O326       Ni349   1.906       .  S
O326        C483   1.268   1_565  A
O327        H350   0.966       .  S
O327       Ni479   1.917   1_554  S
O327      Ni1089   1.911       .  S
C328        O345   1.263   1_554  A
C328        O929   1.271       .  A
C328        C443   1.432       .  S
O329       Ni348   1.919       .  S
O330       Ni348   1.902       .  S
O330        C332   1.272       .  A
Ni331       O334   1.933       .  S
Ni331       O336   1.899       .  S
Ni331       O475   1.917       .  S
C332        O934   1.275   1_455  A
C332       C1017   1.467   1_455  S
O333       Ni349   1.906       .  S
O333        C339   1.267   1_455  A
O334        C931   1.270       .  A
C335        O474   1.267   1_544  A
C335        C418   1.435   1_545  S
O336        C338   1.271       .  A
O337       Ni348   1.934       .  S
O337        C920   1.269       .  A
C338        O936   1.275       .  A
C338        C422   1.465       .  S
C339        O926   1.272       .  A
C339        C441   1.436       .  S
H340        O341   0.966       .  S
O341      Ni1083   1.907   1_455  S
O341       Ni496   1.919       .  S
O342       Ni343   1.939       .  S
O342        C924   1.274       .  A
Ni343       O347   1.898       .  S
Ni343       O345   1.898   1_554  S
Ni343      O1081   1.905   1_554  S
O344       Ni349   1.936       .  S
O344        C930   1.274   1_455  A
C346        O495   1.264       .  A
C346        C420   1.435       .  S
O347        C494   1.264   1_554  A
Ni348       O489   1.918   1_554  S
Ni349      O1067   1.910   1_455  S
O351       Ni357   1.925       .  S
O352       Ni375   1.903       .  S
O352        C361   1.266   1_565  A
O353        H376   0.966       .  S
O353       Ni357   1.920       .  S
O353       Ni967   1.905       .  S
C354        O371   1.267       .  A
C354        O955   1.270       .  A
C354        C432   1.436       .  S
O355       Ni374   1.932       .  S
O356       Ni374   1.899       .  S
O356        C358   1.271       .  A
Ni357       O360   1.940       .  S
Ni357       O362   1.901       .  S
C358        O960   1.274   1_455  A
C358       C1013   1.465   1_455  S
O359       Ni375   1.905       .  S
O359        C365   1.265   1_455  A
O360        C957   1.271       .  A
C361        C413   1.434       .  S
O362        C364   1.271       .  A
O363       Ni374   1.939       .  S
O363        C946   1.272       .  A
C364        O962   1.274       .  A
C364        C426   1.467       .  S
C365        O952   1.269       .  A
C365        C430   1.432   1_655  S
H366        O367   0.966       .  S
O367       Ni961   1.910   1_455  S
O367       Ni374   1.918       .  S
O368       Ni369   1.937       .  S
O368        C950   1.275       .  A
Ni369       O373   1.911       .  S
Ni369       O371   1.910       .  S
Ni369       O959   1.911       .  S
O370       Ni375   1.939       .  S
O370        C956   1.275   1_455  A
C372        O373   1.269       .  A
C372        C415   1.434       .  S
Ni375       O945   1.906   1_455  S
O377       Ni385   1.920       .  S
O377        C387   1.282   1_565  A
O378       Ni533   1.917       .  S
O378        C388   1.280       .  A
O379       Ni385   1.918       .  S
O379        C537   1.280   1_554  A
O380       Ni385   1.919       .  S
O380        C390   1.280       .  A
O381       Ni386   1.927       .  S
O382       Ni386   1.927       .  S
O383       Ni386   1.913       .  S
O384       Ni534   1.916   1_554  S
Ni385       O526   1.920   1_554  S
Ni386       O532   1.914       .  S
C387        C410   1.477       .  S
C388        C405   1.478       .  S
C389        O527   1.280   1_545  A
C389        C419   1.434       .  S
C390        C417   1.435       .  S
O391       Ni399   1.909       .  S
O392       Ni399   1.908       .  S
O393       Ni399   1.934       .  S
O394       Ni399   1.934       .  S
O395       Ni400   1.920       .  S
O395        C404   1.281       .  A
O396       Ni400   1.920       .  S
O396        C403   1.283   1_565  A
O397       Ni400   1.916       .  S
O397        C402   1.279       .  A
O398       Ni400   1.916       .  S
O398        C401   1.279   1_565  A
C401        C416   1.434       .  S
C402        C414   1.434       .  S
C403        C406   1.478       .  S
C404        C409   1.478       .  S
C405        C406   1.345   1_565  D
C405        H407   1.087       .  S
C409        C410   1.345   1_565  D
C409        H411   1.087       .  S
C413        C414   1.205   1_545  T
C417        C418   1.206       .  T
C421        C950   1.465       .  S
C422        H720   1.087       .  S
H424        C718   1.087       .  S
C425        C924   1.467       .  S
C425        H427   1.087       .  S
C426       H1020   1.087       .  S
H428       C1018   1.087       .  S
C429       C1022   1.204       .  T
C430       C1021   1.204       .  T
C431        C432   1.206       .  T
C433        C434   1.344       .  D
C433       H1027   1.087       .  S
C434        H436   1.087       .  S
H435       C1025   1.086       .  S
C437        C438   1.348       .  D
C437        H439   1.086       .  S
C438       H1032   1.086       .  S
H440       C1030   1.087       .  S
C441        C442   1.207   1_655  T
C443        C444   1.204       .  T
C444        C901   1.432       .  S
O445       Ni453   1.918       .  S
O445       C1047   1.282   1_455  A
O446       C1048   1.281       .  A
O447        C457   1.280   1_455  A
O448       Ni453   1.920       .  S
O448        C458   1.280   1_455  A
O449       C1050   1.281   1_554  A
O450       Ni454   1.919       .  S
O450       C1049   1.280       .  A
O451       Ni454   1.916       .  S
O451        C456   1.281       .  A
O452        C455   1.280       .  A
Ni453      Ni898   2.392   1_456  S
Ni454      Ni897   2.392       .  S
C455       O1037   1.284       .  A
C455        C582   1.479       .  S
C456       O1038   1.282       .  A
C456        C586   1.477       .  S
C457       O1042   1.278       .  A
C457       C1184   1.432       .  S
C458       O1041   1.279   1_556  A
C458        C590   1.435       .  S
O459       Ni467   1.912       .  S
O459        C469   1.278       .  A
O460       Ni467   1.915       .  S
O460        C470   1.278       .  A
O461       Ni467   1.924       .  S
O461        C471   1.284       .  A
O462       Ni467   1.922       .  S
O462        C472   1.282       .  A
O463       Ni468   1.921       .  S
O463       C1064   1.283   1_455  A
O464       Ni468   1.921       .  S
O464       C1063   1.282       .  A
O465       Ni468   1.916       .  S
O465       C1062   1.279   1_455  A
O466       Ni468   1.914       .  S
O466       C1061   1.278   1_455  A
Ni467     Ni1060   2.392       .  S
Ni468     Ni1059   2.392   1_455  S
C469       O1058   1.280       .  A
C469        C577   1.432       .  S
C470       O1057   1.281       .  A
C470        C579   1.435       .  S
C471       O1056   1.280       .  A
C471        C581   1.480       .  S
C472       O1055   1.281       .  A
C472        C585   1.477       .  S
O473       Ni479   1.925       .  S
O474       Ni497   1.907   1_556  S
O475        H498   0.966       .  S
O475       Ni941   1.911       .  S
C476        O493   1.263       .  A
C476       O1077   1.270       .  A
C476        C591   1.433       .  S
O477       Ni496   1.916       .  S
O478       Ni496   1.899       .  S
O478        C480   1.272       .  A
Ni479       O482   1.934       .  S
Ni479       O484   1.899       .  S
C480       O1082   1.276   1_455  A
C480       C1165   1.468   1_455  S
O481       Ni497   1.903       .  S
O481        C487   1.266   1_454  A
O482       C1079   1.270       .  A
C483        C566   1.437       .  S
O484        C486   1.271       .  A
O485       Ni496   1.933       .  S
O485       C1068   1.268       .  A
C486       O1084   1.275       .  A
C486        C570   1.465       .  S
C487       O1074   1.272       .  A
C487        C589   1.435       .  S
H488        O489   0.966       .  S
O489       Ni935   1.906   1_455  S
O490       Ni491   1.941       .  S
O490       C1072   1.275       .  A
Ni491       O495   1.898       .  S
Ni491       O493   1.900       .  S
Ni491       O933   1.905       .  S
O492       Ni497   1.936   1_556  S
O492       C1078   1.274   1_455  A
C494        C568   1.436       .  S
Ni497       O919   1.910   1_455  S
O499       Ni505   1.923       .  S
O500       Ni523   1.902       .  S
O500        C509   1.265   1_565  A
O501        H524   0.966       .  S
O501       Ni505   1.920       .  S
O501      Ni1115   1.905       .  S
C502        O519   1.267       .  A
C502       O1103   1.270       .  A
C502        C580   1.435       .  S
O503       Ni522   1.934       .  S
O504       Ni522   1.899       .  S
O504        C506   1.271       .  A
Ni505       O508   1.939       .  S
Ni505       O510   1.898       .  S
C506       O1108   1.274   1_455  A
C506       C1161   1.466   1_455  S
O507       Ni523   1.904       .  S
O507        C513   1.264   1_455  A
O508       C1105   1.270       .  A
C509        C561   1.431   1_545  S
O510        C512   1.271       .  A
O511       Ni522   1.939       .  S
O511       C1094   1.272       .  A
C512       O1110   1.275       .  A
C512        C574   1.467       .  S
C513       O1100   1.268       .  A
C513        C578   1.432       .  S
H514        O515   0.966       .  S
O515      Ni1109   1.910   1_455  S
O515       Ni522   1.919       .  S
O516       Ni517   1.937       .  S
O516       C1098   1.275       .  A
Ni517       O521   1.912       .  S
Ni517       O519   1.909       .  S
Ni517      O1107   1.911       .  S
O518       Ni523   1.942       .  S
O518       C1104   1.276   1_455  A
C520        O521   1.269       .  A
C520        C563   1.434       .  S
Ni523      O1093   1.907   1_455  S
O525       Ni533   1.917       .  S
O525        C535   1.282   1_565  A
O526        C536   1.281       .  A
O527       Ni533   1.918       .  S
O528       Ni533   1.920       .  S
O528        C538   1.280   1_565  A
O529       Ni534   1.926       .  S
O530       Ni534   1.927       .  S
O531       Ni534   1.917       .  S
C535        C558   1.478       .  S
C536        C553   1.478       .  S
C537        C567   1.434       .  S
C538        C565   1.436       .  S
O539       Ni547   1.908       .  S
O540       Ni547   1.905       .  S
O541       Ni547   1.937       .  S
O542       Ni547   1.938       .  S
O543       Ni548   1.922       .  S
O543        C552   1.282       .  A
O544       Ni548   1.922       .  S
O544        C551   1.283   1_565  A
O545       Ni548   1.914       .  S
O545        C550   1.278       .  A
O546       Ni548   1.914       .  S
O546        C549   1.279       .  A
C549        C564   1.433       .  S
C550        C562   1.431       .  S
C551        C554   1.477       .  S
C552        C557   1.478       .  S
C553        C554   1.345   1_565  D
C553        H555   1.087       .  S
C557        C558   1.346   1_565  D
C557        H559   1.087       .  S
C561        C562   1.204       .  T
C565        C566   1.207       .  T
C569       C1098   1.465       .  S
C570        H868   1.087       .  S
H572        C866   1.087       .  S
C573       C1072   1.467       .  S
C573        H575   1.087       .  S
C574       H1168   1.087       .  S
H576       C1166   1.087       .  S
C577       C1170   1.204       .  T
C578       C1169   1.204       .  T
C579        C580   1.206       .  T
C581        C582   1.344       .  D
C581       H1175   1.087       .  S
C582        H584   1.087       .  S
H583       C1173   1.087       .  S
C585        C586   1.346       .  D
C585        H587   1.087       .  S
C586       H1180   1.087       .  S
H588       C1178   1.087       .  S
C589        C590   1.206       .  T
C591        C592   1.204       .  T
C592       C1049   1.432       .  S
O593       Ni601   1.918       .  S
O594       Ni749   1.917   1_554  S
O595       Ni749   1.919       .  S
O595        C605   1.280   1_556  A
O596       Ni601   1.923       .  S
O596        C606   1.281       .  A
O597       Ni750   1.930       .  S
O598       Ni602   1.921       .  S
O599       Ni602   1.920       .  S
O599        C604   1.282   1_655  A
O600       Ni750   1.905       .  S
O600        C603   1.277       .  A
Ni601       O742   1.918       .  S
Ni601       O743   1.919       .  S
Ni602       O745   1.922       .  S
Ni602       O748   1.923   1_554  S
C603        C730   1.479       .  S
C604        C734   1.480       .  S
C606        C738   1.436       .  S
O607       Ni615   1.911       .  S
O607        C617   1.278       .  A
O608       Ni615   1.915       .  S
O608        C618   1.278       .  A
O609       Ni615   1.924       .  S
O609        C619   1.284   1_655  A
O610       Ni615   1.923       .  S
O610        C620   1.282       .  A
O611       Ni616   1.923       .  S
O612       Ni616   1.923       .  S
O613       Ni616   1.915       .  S
O614       Ni616   1.913       .  S
C617        C725   1.433       .  S
C618        C727   1.436       .  S
C619        C729   1.484       .  S
C620        C733   1.480       .  S
O621       Ni627   1.923       .  S
O621        C938   1.269       .  A
O622       Ni645   1.904       .  S
O622        C779   1.266       .  A
O623        H646   0.966       .  S
O623       Ni775   1.917   1_554  S
O623       Ni935   1.921   1_554  S
C624        O641   1.262   1_454  A
C624        C739   1.433       .  S
O625       Ni644   1.919       .  S
O625        C927   1.269       .  A
O626       Ni644   1.902       .  S
O626        C628   1.272       .  A
Ni627       O630   1.930       .  S
Ni627       O632   1.899       .  S
Ni627       O771   1.917       .  S
O629       Ni645   1.903       .  S
O629        C635   1.266       .  A
C631        O770   1.267   1_554  A
C631        O921   1.270       .  A
C631        C714   1.434       .  S
O632        C634   1.271       .  A
O633       Ni644   1.934       .  S
C634        C718   1.466   1_655  S
C635        C737   1.437       .  S
H636        O637   0.966       .  S
O637       Ni941   1.922   1_545  S
O637       Ni792   1.919       .  S
O638       Ni639   1.939       .  S
Ni639       O643   1.897       .  S
Ni639       O641   1.898   1_554  S
Ni639       O919   1.918   1_545  S
O640       Ni645   1.936       .  S
C642        O917   1.271       .  A
C642        O791   1.262   1_565  A
C642        C716   1.433   1_565  S
O643        C790   1.263   1_554  A
Ni644       O785   1.919   1_554  S
Ni645       O933   1.923       .  S
O647       Ni653   1.925       .  S
O647        C964   1.270       .  A
O648       Ni671   1.904       .  S
O648        C657   1.266       .  A
O649        H672   0.966       .  S
O649       Ni653   1.920       .  S
O649       Ni961   1.922       .  S
C650        O667   1.268       .  A
C650        C728   1.436       .  S
O651       Ni670   1.933       .  S
O651        C953   1.272   1_545  A
O652       Ni670   1.898       .  S
O652        C654   1.271       .  A
Ni653       O656   1.941       .  S
Ni653       O658   1.900       .  S
O655       Ni671   1.905       .  S
O655        C661   1.265       .  A
C657        O947   1.269       .  A
C657        C709   1.434       .  S
O658        C660   1.271       .  A
O659       Ni670   1.940       .  S
C660        C722   1.467   1_655  S
C661        C726   1.432       .  S
H662        O663   0.966       .  S
O663       Ni967   1.918   1_545  S
O663       Ni670   1.918       .  S
O664       Ni665   1.938       .  S
Ni665       O669   1.911       .  S
Ni665       O667   1.911       .  S
Ni665       O945   1.922   1_545  S
O666       Ni671   1.939       .  S
C668        O943   1.269       .  A
C668        O669   1.269   1_565  A
C668        C711   1.435       .  S
Ni671       O959   1.922       .  S
O673       Ni681   1.919       .  S
O673        C683   1.282       .  A
O674       Ni829   1.917       .  S
O674        C684   1.280       .  A
O675       Ni681   1.918       .  S
O675        C833   1.280   1_554  A
O676       Ni681   1.918       .  S
O676        C686   1.279       .  A
O677       Ni682   1.926       .  S
O677       C1130   1.282       .  A
O678       Ni682   1.926       .  S
O678        C981   1.282       .  A
O679       Ni682   1.913       .  S
O679        C980   1.279       .  A
O680       Ni830   1.916   1_554  S
O680        C979   1.279       .  A
Ni681       O822   1.919   1_554  S
Ni681     Ni1126   2.392   1_554  S
Ni682       O828   1.915       .  S
Ni682     Ni1125   2.391   1_545  S
C683        O976   1.281       .  A
C683        C706   1.478       .  S
C684        O975   1.283       .  A
C684        C701   1.477       .  S
C685        O823   1.280       .  A
C685        O974   1.278       .  A
C685        C715   1.431       .  S
C686       O1121   1.279   1_554  A
C686        C713   1.434       .  S
O687       Ni695   1.909       .  S
O687        C993   1.277   1_545  A
O688       Ni695   1.908       .  S
O688        C994   1.277   1_545  A
O689       Ni695   1.933       .  S
O689        C995   1.286   1_545  A
O690       Ni695   1.934       .  S
O690        C996   1.286   1_545  A
O691       Ni696   1.920       .  S
O691        C700   1.281       .  A
O692       Ni696   1.920       .  S
O692        C699   1.282       .  A
O693       Ni696   1.916       .  S
O693        C698   1.279       .  A
O694       Ni696   1.917       .  S
O694        C697   1.280       .  A
Ni695      Ni992   2.391   1_545  S
Ni696      Ni991   2.392       .  S
C697        O983   1.280       .  A
C697        C712   1.435       .  S
C698        O984   1.280       .  A
C698        C710   1.434       .  S
C699        O985   1.281       .  A
C699        C702   1.478       .  S
C700        O986   1.282       .  A
C700        C705   1.477       .  S
C701        C702   1.345       .  D
C701        H703   1.087       .  S
C702       H1000   1.087       .  S
H704        C998   1.087       .  S
C705        C706   1.345       .  D
C705        H707   1.087       .  S
C706       H1004   1.087       .  S
H708       C1002   1.087       .  S
C709        C710   1.205       .  T
C711       C1008   1.206       .  T
C712       C1007   1.206       .  T
C713        C714   1.205       .  T
C715       C1012   1.204       .  T
C716       C1011   1.204       .  T
C717       C1014   1.341   1_645  D
C717       H1015   1.087   1_545  S
C718       C1013   1.341   1_455  D
H719       C1013   1.087       .  S
C721       C1018   1.341   1_645  D
C721        H723   1.087       .  S
C722       C1017   1.341   1_455  D
C727        C728   1.207       .  T
C729        C730   1.343   1_455  D
C730        H732   1.087       .  S
C733        C734   1.347   1_655  D
C733        H735   1.086       .  S
C737        C738   1.207       .  T
C739        C740   1.204   1_455  T
O741       Ni749   1.917       .  S
O743        C753   1.281       .  A
O744       Ni749   1.922       .  S
O744        C754   1.280       .  A
O746       Ni750   1.930       .  S
O747       Ni750   1.904       .  S
O747        C752   1.276       .  A
O748        C751   1.280       .  A
C751        C878   1.484       .  S
C752        C882   1.477       .  S
C754        C886   1.436       .  S
O755       Ni763   1.904       .  S
O755        C765   1.276   1_655  A
O756       Ni763   1.908       .  S
O756        C766   1.276   1_655  A
O757       Ni763   1.939       .  S
O757        C767   1.286   1_655  A
O758       Ni763   1.936       .  S
O758        C768   1.287   1_655  A
O759       Ni764   1.924       .  S
O760       Ni764   1.923       .  S
O761       Ni764   1.914       .  S
O762       Ni764   1.911       .  S
C765        C873   1.434       .  S
C766        C875   1.437       .  S
C767        C877   1.479       .  S
C768        C881   1.477       .  S
O769       Ni775   1.925       .  S
O769       C1086   1.269       .  A
O770       Ni793   1.905   1_556  S
O771        H794   0.966       .  S
O771      Ni1083   1.917       .  S
C772        O789   1.261       .  A
C772        C887   1.435       .  S
O773       Ni792   1.917       .  S
O773       C1075   1.268       .  A
O774       Ni792   1.900       .  S
O774        C776   1.272       .  A
Ni775       O778   1.933       .  S
Ni775       O780   1.898       .  S
O777       Ni793   1.903       .  S
O777        C783   1.266   1_554  A
C779       O1069   1.270       .  A
C779        C862   1.433       .  S
O780        C782   1.271       .  A
O781       Ni792   1.932       .  S
C782        C866   1.466   1_655  S
C783        C885   1.436       .  S
H784        O785   0.966       .  S
O785      Ni1089   1.922   1_546  S
O786       Ni787   1.940       .  S
Ni787       O791   1.892       .  S
Ni787       O789   1.896       .  S
Ni787      O1067   1.916   1_545  S
O788       Ni793   1.937   1_556  S
C790       O1065   1.271   1_545  A
C790        C864   1.435       .  S
Ni793      O1081   1.922   1_554  S
O795       Ni801   1.928       .  S
O795       C1112   1.271       .  A
O796       Ni819   1.904       .  S
O796        C805   1.266       .  A
O797        H820   0.966       .  S
O797       Ni801   1.920       .  S
O797      Ni1109   1.925       .  S
C798        O815   1.270   1_455  A
C798        C876   1.436       .  S
O799       Ni818   1.933       .  S
O799       C1101   1.272   1_545  A
O800       Ni818   1.898       .  S
O800        C802   1.271       .  A
Ni801       O804   1.947       .  S
Ni801       O806   1.900       .  S
O803       Ni819   1.905       .  S
O803        C809   1.265       .  A
C805       O1095   1.270       .  A
C805        C857   1.434       .  S
O806        C808   1.271       .  A
O807       Ni818   1.941       .  S
C808        C870   1.467   1_655  S
C809        C874   1.431       .  S
H810        O811   0.966       .  S
O811      Ni1115   1.918   1_545  S
O811       Ni818   1.918       .  S
O812       Ni813   1.938       .  S
Ni813       O817   1.916       .  S
Ni813       O815   1.915       .  S
Ni813      O1093   1.927   1_545  S
O814       Ni819   1.941       .  S
C816       O1091   1.268       .  A
C816        O817   1.271   1_565  A
C816        C859   1.435       .  S
Ni819      O1107   1.919       .  S
O821       Ni829   1.918       .  S
O821        C831   1.282       .  A
O822        C832   1.281       .  A
O823       Ni829   1.916       .  S
O824       Ni829   1.917       .  S
O824        C834   1.279       .  A
O825       Ni830   1.926       .  S
O825        C982   1.282   1_556  A
O826       Ni830   1.926       .  S
O826       C1129   1.282       .  A
O827       Ni830   1.917       .  S
O827       C1128   1.279       .  A
O828       C1127   1.279       .  A
Ni829      Ni978   2.392       .  S
Ni830      Ni977   2.391   1_546  S
C831       O1124   1.282       .  A
C831        C854   1.478       .  S
C832       O1123   1.283       .  A
C832        C849   1.478       .  S
C833       O1122   1.279       .  A
C833        C863   1.434       .  S
C834        O973   1.279       .  A
C834        C861   1.433       .  S
O835       Ni843   1.910       .  S
O835       C1141   1.276   1_545  A
O836       Ni843   1.908       .  S
O836       C1142   1.277   1_545  A
O837       Ni843   1.937       .  S
O837       C1143   1.286   1_545  A
O838       Ni843   1.938       .  S
O838       C1144   1.287   1_545  A
O839       Ni844   1.922       .  S
O839        C848   1.282       .  A
O840       Ni844   1.923       .  S
O840        C847   1.283       .  A
O841       Ni844   1.916       .  S
O841        C846   1.279       .  A
O842       Ni844   1.917       .  S
O842        C845   1.280       .  A
Ni843     Ni1140   2.390   1_545  S
Ni844     Ni1139   2.392       .  S
C845       O1131   1.280       .  A
C845        C860   1.436       .  S
C846       O1132   1.280       .  A
C846        C858   1.434       .  S
C847       O1133   1.280       .  A
C847        C850   1.478       .  S
C848       O1134   1.282       .  A
C848        C853   1.478       .  S
C849        C850   1.345       .  D
C849        H851   1.087       .  S
C850       H1148   1.087       .  S
H852       C1146   1.087       .  S
C853        C854   1.346       .  D
C853        H855   1.087       .  S
C854       H1152   1.087       .  S
H856       C1150   1.087       .  S
C857        C858   1.205       .  T
C859       C1156   1.206       .  T
C860       C1155   1.207       .  T
C861        C862   1.204       .  T
C863       C1160   1.205       .  T
C864       C1159   1.206       .  T
C865       C1162   1.341   1_645  D
C865       H1163   1.087       .  S
C866       C1161   1.341   1_455  D
H867       C1161   1.087       .  S
C869       C1166   1.342   1_645  D
C869        H871   1.087       .  S
C870       C1165   1.342   1_455  D
C875        C876   1.207       .  T
C877        C878   1.343   1_455  D
C878        H880   1.086       .  S
C881        C882   1.338   1_455  D
C881        H883   1.087       .  S
C885        C886   1.206       .  T
C887        C888   1.206       .  T
O889       Ni897   1.924       .  S
O890      Ni1045   1.925   1_554  S
O891      Ni1045   1.911       .  S
O891        C901   1.278   1_556  A
O892       Ni897   1.915       .  S
O892        C902   1.278       .  A
O893      Ni1046   1.916       .  S
O894       Ni898   1.913       .  S
O895       Ni898   1.922       .  S
O895        C900   1.283   1_655  A
O896      Ni1046   1.921       .  S
O896        C899   1.282       .  A
Ni897      O1038   1.922       .  S
Ni897      O1039   1.912       .  S
Ni898      O1041   1.915       .  S
Ni898      O1044   1.923   1_554  S
C899       C1026   1.479       .  S
C900       C1030   1.477       .  S
C902       C1034   1.435       .  S
O903       Ni911   1.918       .  S
O903        C913   1.280   1_655  A
O904       Ni911   1.920       .  S
O904        C914   1.280   1_655  A
O905       Ni911   1.918       .  S
O905        C915   1.282   1_655  A
O906       Ni911   1.917       .  S
O906        C916   1.280       .  A
O907       Ni912   1.914       .  S
O908       Ni912   1.916       .  S
O909       Ni912   1.921       .  S
O910       Ni912   1.919       .  S
C913       C1021   1.432       .  S
C914       C1023   1.435       .  S
C915       C1025   1.479       .  S
C916       C1029   1.477       .  S
O917       Ni923   1.933       .  S
O918       Ni941   1.912       .  S
O918       C1075   1.269   1_565  A
O919        H942   0.966       .  S
O919      Ni1071   1.918   1_554  S
C920        O937   1.265   1_454  A
C920       C1035   1.432   1_455  S
O921       Ni940   1.925       .  S
O922       Ni940   1.901       .  S
O922        C924   1.271       .  A
Ni923       O926   1.939       .  S
Ni923       O928   1.899       .  S
Ni923      O1067   1.919       .  S
O925       Ni941   1.909       .  S
O925        C931   1.267       .  A
C927       O1066   1.269   1_544  A
C927       C1010   1.434       .  S
O928        C930   1.271       .  A
O929       Ni940   1.940       .  S
C930       C1014   1.466   1_655  S
C931       C1033   1.435       .  S
H932        O933   0.966       .  S
O933      Ni1088   1.920       .  S
O934       Ni935   1.939   1_554  S
Ni935       O939   1.903   1_556  S
Ni935       O937   1.905       .  S
O936       Ni941   1.937       .  S
C938       O1087   1.265       .  A
C938       C1012   1.431       .  S
O939       C1086   1.266   1_554  A
Ni940      O1081   1.920   1_554  S
O943       Ni949   1.919       .  S
O944       Ni967   1.898       .  S
O944        C953   1.264       .  A
O945        H968   0.966       .  S
O945       Ni949   1.919       .  S
C946        O963   1.266   1_455  A
C946       C1024   1.435       .  S
O947       Ni966   1.925       .  S
O948       Ni966   1.899       .  S
O948        C950   1.271       .  A
Ni949       O952   1.934       .  S
Ni949       O954   1.902       .  S
O951       Ni967   1.898       .  S
O951        C957   1.263       .  A
C953       C1005   1.436       .  S
O954        C956   1.272       .  A
O955       Ni966   1.934       .  S
C956       C1018   1.467   1_655  S
C957       C1022   1.432       .  S
H958        O959   0.966       .  S
O959       Ni966   1.917       .  S
O960       Ni961   1.936       .  S
Ni961       O965   1.907       .  S
Ni961       O963   1.903       .  S
O962       Ni967   1.939       .  S
C964        O965   1.267       .  A
C964       C1007   1.436       .  S
O969       Ni977   1.934       .  S
O969        C979   1.286   1_565  A
O970      Ni1125   1.937       .  S
O970        C980   1.286   1_565  A
O971       Ni977   1.908   1_556  S
O971       C1129   1.277   1_565  A
O972       Ni977   1.909       .  S
O972        C982   1.276   1_565  A
O973       Ni978   1.914       .  S
O974       Ni978   1.914       .  S
O975       Ni978   1.922       .  S
O976      Ni1126   1.920   1_554  S
Ni977      O1118   1.934   1_554  S
Ni978      O1124   1.922       .  S
C979       C1002   1.484       .  S
C980        C997   1.483       .  S
C981       O1119   1.276   1_545  A
C981       C1011   1.432       .  S
C982       C1009   1.435       .  S
O983       Ni991   1.919       .  S
O984       Ni991   1.918       .  S
O985       Ni991   1.920       .  S
O986       Ni991   1.920       .  S
O987       Ni992   1.916       .  S
O987        C996   1.279       .  A
O988       Ni992   1.917       .  S
O988        C995   1.279       .  A
O989       Ni992   1.927       .  S
O989        C994   1.282       .  A
O990       Ni992   1.926       .  S
O990        C993   1.282       .  A
C993       C1008   1.435       .  S
C994       C1006   1.435       .  S
C995        C998   1.484       .  S
C996       C1001   1.484       .  S
C997        C998   1.343   1_545  D
C997        H999   1.087       .  S
C1001      C1002   1.344   1_565  D
C1001      H1003   1.087       .  S
C1005      C1006   1.206       .  T
C1009      C1010   1.206       .  T
C1017      H1019   1.087       .  S
C1023      C1024   1.206       .  T
C1025      C1026   1.347   1_455  D
C1026      H1028   1.087       .  S
C1029      C1030   1.344   1_655  D
C1029      H1031   1.087       .  S
C1033      C1034   1.206       .  T
C1035      C1036   1.204       .  T
O1037     Ni1045   1.927       .  S
O1039      C1049   1.278       .  A
O1040     Ni1045   1.916       .  S
O1040      C1050   1.278       .  A
O1042     Ni1046   1.914       .  S
O1043     Ni1046   1.921       .  S
O1043      C1048   1.283   1_655  A
O1044      C1047   1.282       .  A
C1047      C1174   1.479       .  S
C1048      C1178   1.478       .  S
C1050      C1182   1.436       .  S
O1051     Ni1059   1.918       .  S
O1051      C1061   1.280       .  A
O1052     Ni1059   1.921       .  S
O1052      C1062   1.280       .  A
O1053     Ni1059   1.920       .  S
O1053      C1063   1.282   1_655  A
O1054     Ni1059   1.919       .  S
O1054      C1064   1.281       .  A
O1055     Ni1060   1.916       .  S
O1056     Ni1060   1.919       .  S
O1057     Ni1060   1.921       .  S
O1058     Ni1060   1.919       .  S
C1061      C1169   1.432       .  S
C1062      C1171   1.436       .  S
C1063      C1173   1.479       .  S
C1064      C1177   1.478       .  S
O1065     Ni1071   1.932       .  S
O1066     Ni1089   1.911   1_556  S
O1067      H1090   0.966       .  S
C1068      O1085   1.264   1_455  A
C1068      C1183   1.432   1_455  S
O1069     Ni1088   1.923       .  S
O1070     Ni1088   1.898       .  S
O1070      C1072   1.271       .  A
Ni1071     O1074   1.939       .  S
Ni1071     O1076   1.899       .  S
O1073     Ni1089   1.910       .  S
O1073      C1079   1.267   1_554  A
C1075      C1158   1.434       .  S
O1076      C1078   1.271       .  A
O1077     Ni1088   1.939       .  S
C1078      C1162   1.465   1_655  S
C1079      C1181   1.436       .  S
H1080      O1081   0.966       .  S
O1082     Ni1083   1.942       .  S
Ni1083     O1087   1.902       .  S
Ni1083     O1085   1.904       .  S
O1084     Ni1089   1.937   1_556  S
C1086      C1160   1.434       .  S
O1091     Ni1097   1.916       .  S
O1092     Ni1115   1.898       .  S
O1092      C1101   1.264       .  A
O1093      H1116   0.966       .  S
O1093     Ni1097   1.919       .  S
C1094      O1111   1.267   1_455  A
C1094      C1172   1.436   1_455  S
O1095     Ni1114   1.925       .  S
O1096     Ni1114   1.899       .  S
O1096      C1098   1.271       .  A
Ni1097     O1100   1.933       .  S
Ni1097     O1102   1.899       .  S
O1099     Ni1115   1.900       .  S
O1099      C1105   1.263       .  A
C1101      C1153   1.435       .  S
O1102      C1104   1.272       .  A
O1103     Ni1114   1.933       .  S
C1104      C1166   1.468   1_655  S
C1105      C1170   1.433       .  S
H1106      O1107   0.966       .  S
O1107     Ni1114   1.917       .  S
O1108     Ni1109   1.936       .  S
Ni1109     O1113   1.907       .  S
Ni1109     O1111   1.906       .  S
O1110     Ni1115   1.941       .  S
C1112      O1113   1.268       .  A
C1112      C1155   1.437       .  S
O1117     Ni1125   1.938       .  S
O1117      C1127   1.287   1_565  A
O1118      C1128   1.286   1_565  A
O1119     Ni1125   1.905       .  S
O1120     Ni1125   1.908       .  S
O1120      C1130   1.276   1_565  A
O1121     Ni1126   1.916       .  S
O1122     Ni1126   1.916       .  S
O1123     Ni1126   1.920       .  S
C1127      C1150   1.485       .  S
C1128      C1145   1.484       .  S
C1129      C1159   1.434       .  S
C1130      C1157   1.434       .  S
O1131     Ni1139   1.920       .  S
O1132     Ni1139   1.918       .  S
O1133     Ni1139   1.917       .  S
O1134     Ni1139   1.917       .  S
O1135     Ni1140   1.914       .  S
O1135      C1144   1.279       .  A
O1136     Ni1140   1.913       .  S
O1136      C1143   1.279       .  A
O1137     Ni1140   1.927       .  S
O1137      C1142   1.282       .  A
O1138     Ni1140   1.927       .  S
O1138      C1141   1.283       .  A
C1141      C1156   1.436       .  S
C1142      C1154   1.435       .  S
C1143      C1146   1.483       .  S
C1144      C1149   1.485       .  S
C1145      C1146   1.343   1_545  D
C1145      H1147   1.087       .  S
C1149      C1150   1.343   1_565  D
C1149      H1151   1.087       .  S
C1153      C1154   1.206       .  T
C1157      C1158   1.206       .  T
C1165      H1167   1.087       .  S
C1171      C1172   1.207       .  T
C1173      C1174   1.347   1_455  D
C1174      H1176   1.086       .  S
C1177      C1178   1.345   1_655  D
C1177      H1179   1.087       .  S
C1181      C1182   1.206       .  T
C1183      C1184   1.204       .  T
