geometry optimzed in LAMMPS
_audit_creation_date              2020-11-30 
_audit_creation_method            'lammps2cif' 
_symmetry_space_group_name_H-M    'P1' 
_symmetry_Int_Tables_number       1 
_symmetry_cell_setting            triclinic 
loop_ 
_symmetry_equiv_pos_as_xyz 
  x,y,z 
_cell_length_a                    54.69954974 
_cell_length_b                    54.71718289761021 
_cell_length_c                    40.049676260324254 
_cell_angle_alpha                 90.03067948308751 
_cell_angle_beta                  90.02793520267177 
_cell_angle_gamma                 90.15669220958128 
loop_ 
_atom_site_label 
_atom_site_type_symbol 
_atom_site_fract_x 
_atom_site_fract_y 
_atom_site_fract_z 
_atom_site_charge 
C1          C  0.48635590  0.23888637  0.27697061     0.80800
N2          N  0.49802646  0.22627567  0.25255443    -0.77500
C3          C  0.50979837  0.23829488  0.22757812     0.83300
N4          N  0.50961979  0.26315138  0.22693129    -0.77400
C5          C  0.49804951  0.27594701  0.25136871     0.83400
N6          N  0.48652438  0.26371847  0.27640334    -0.79100
O7          O  0.49626089  0.45843059  0.27230986    -0.71200
O8          O  0.50137085  0.52775102  0.27499977    -0.71400
O9          O  0.46414289  0.49551768  0.27347612    -0.71200
O10         O  0.53354296  0.49052790  0.27361548    -0.71200
O11         O  0.53370211  0.49512877  0.21971645    -0.71200
O12         O  0.46430710  0.49305194  0.21931214    -0.71200
O13         O  0.49795110  0.52890144  0.22096501    -0.71200
O14         O  0.50011618  0.45926101  0.21832231    -0.71300
V15         V  0.49884820  0.49308815  0.27260580     1.35200
V16         V  0.49900821  0.49408430  0.22056797     1.35200
C17         C  0.49805852  0.44700787  0.24498467     0.78100
C18         C  0.49975597  0.54016463  0.24846433     0.78100
C19         C  0.45241062  0.49450146  0.24629317     0.78000
C20         C  0.54542572  0.49239857  0.24665159     0.78000
C21         C  0.75347237  0.48075862  0.27823460     0.80800
N22         N  0.76556518  0.49227789  0.25322893    -0.77500
C23         C  0.75313515  0.50231082  0.22737043     0.83300
N24         N  0.72834426  0.50079242  0.22653741    -0.77400
C25         C  0.71603994  0.48953358  0.25171125     0.83400
N26         N  0.72866432  0.47951547  0.27754369    -0.79100
C27         C  0.51015502  0.74789192  0.27523806     0.80800
N28         N  0.50874454  0.72307693  0.27527373    -0.77500
C29         C  0.49712315  0.71111830  0.25006922     0.83300
N30         N  0.48664761  0.72412945  0.22496305    -0.77400
C31         C  0.48766455  0.74893813  0.22509506     0.83400
N32         N  0.49956326  0.76071655  0.25015141    -0.79100
C33         C  0.24428256  0.50322427  0.27424787     0.80800
N34         N  0.26907082  0.50382962  0.27380278    -0.77500
C35         C  0.28164002  0.49255698  0.24897913     0.83300
N36         N  0.26926098  0.48041968  0.22459965    -0.77400
C37         C  0.24440436  0.47928439  0.22531229     0.83400
N38         N  0.23201845  0.49080594  0.25008621    -0.79100
C39         C  0.48745787  0.74434566  0.77377299     0.80800
N40         N  0.49801895  0.75723188  0.74861606    -0.77500
C41         C  0.50932600  0.74544120  0.72314191     0.83300
N42         N  0.50994063  0.72065505  0.72278776    -0.77400
C43         C  0.49964370  0.70765228  0.74797794     0.83400
N44         N  0.48847836  0.71953590  0.77353141    -0.79100
O45         O  0.53482844  0.48851515  0.72150522    -0.71200
O46         O  0.46541085  0.49338127  0.72518038    -0.71400
O47         O  0.50266363  0.52553983  0.72322883    -0.71200
O48         O  0.49751372  0.45619084  0.72347269    -0.71200
O49         O  0.50328002  0.45629184  0.77717741    -0.71200
O50         O  0.49993366  0.52550144  0.77737946    -0.71200
O51         O  0.46686459  0.48909982  0.77908731    -0.71200
O52         O  0.53629420  0.49269148  0.77543639    -0.71300
V53         V  0.50012668  0.49088555  0.72429136     1.35200
V54         V  0.50157017  0.49088941  0.77628794     1.35200
C55         C  0.54739485  0.49065842  0.74789335     0.78100
C56         C  0.45430653  0.49136126  0.75274200     0.78100
C57         C  0.50145787  0.53730411  0.75034167     0.78000
C58         C  0.50022672  0.44444796  0.75039799     0.78000
C59         C  0.24644208  0.48229800  0.78218503     0.80800
N60         N  0.27126748  0.48197447  0.78094261    -0.77500
C61         C  0.28327791  0.49311520  0.75543868     0.83300
N62         N  0.27029611  0.50461157  0.73111638    -0.77400
C63         C  0.24547486  0.50522511  0.73242297     0.83400
N64         N  0.23364702  0.49401265  0.75798317    -0.79100
C65         C  0.51123350  0.23694486  0.77588358     0.80800
N66         N  0.49979112  0.22426776  0.75126075    -0.77500
C67         C  0.48827849  0.23622855  0.72608574     0.83300
N68         N  0.48838419  0.26101889  0.72549196    -0.77400
C69         C  0.49971324  0.27387374  0.75009038     0.83400
N70         N  0.51105625  0.26178794  0.77534094    -0.79100
C71         C  0.75605928  0.50721052  0.77143602     0.80800
N72         N  0.73121513  0.50686571  0.77226228    -0.77500
C73         C  0.71834828  0.49608102  0.74712228     0.83300
N74         N  0.73047207  0.48542988  0.72133122    -0.77400
C75         C  0.75530985  0.48541905  0.72063740     0.83400
N76         N  0.76796705  0.49637484  0.74566193    -0.79100
C77         C  0.99197114  0.73549539  0.77993162     0.80800
N78         N  0.00493159  0.72336457  0.75622033    -0.77500
C79         C  0.01510523  0.73566814  0.73027236     0.83300
N80         N  0.01228590  0.76028504  0.72810135    -0.77400
C81         C  0.99956090  0.77260740  0.75187235     0.83400
N82         N  0.98939062  0.76013244  0.77772595    -0.79100
O83         O  0.99942802  0.95504873  0.72518549    -0.71200
O84         O  0.99739711  0.02457277  0.72603152    -0.71400
O85         O  0.03319811  0.99084527  0.72568551    -0.71200
O86         O  0.96383646  0.98861072  0.72539045    -0.71200
O87         O  0.96371450  0.99286744  0.77936096    -0.71200
O88         O  0.03292263  0.98625295  0.77959134    -0.71200
O89         O  0.00169880  0.02421933  0.77997613    -0.71200
O90         O  0.99483257  0.95494355  0.77908544    -0.71300
V91         V  0.99848232  0.98979985  0.72653892     1.35200
V92         V  0.99832701  0.98956951  0.77855938     1.35200
C93         C  0.99652675  0.94318204  0.75197865     0.78100
C94         C  0.99979015  0.03623264  0.75312755     0.78100
C95         C  0.04486127  0.98811363  0.75266111     0.78000
C96         C  0.95198834  0.99094744  0.75227520     0.78000
C97         C  0.25264988  0.98134120  0.77686557     0.80800
N98         N  0.26493681  0.99380035  0.75286404    -0.77500
C99         C  0.25253949  0.00578859  0.72849710     0.83300
N100        N  0.22773890  0.00491785  0.72791053    -0.77400
C101        C  0.21533613  0.99249975  0.75193255     0.83400
N102        N  0.22783613  0.98088720  0.77648195    -0.79100
C103        C  0.01663539  0.24454170  0.76739972     0.80800
N104        N  0.00482328  0.25667180  0.74271214    -0.77500
C105        C  0.99237440  0.24417665  0.71885517     0.83300
N106        N  0.99185583  0.21935283  0.71963891    -0.77400
C107        C  0.00347671  0.20704109  0.74446736     0.83400
N108        N  0.01573162  0.21971504  0.76840664    -0.79100
C109        C  0.74397159  0.00639332  0.77413999     0.80800
N110        N  0.76876755  0.00617198  0.77480666    -0.77500
C111        C  0.78149784  0.99424439  0.75066774     0.83300
N112        N  0.76929184  0.98232567  0.72594478    -0.77400
C113        C  0.74446837  0.98230716  0.72539442     0.83400
N114        N  0.73192933  0.99439701  0.74946825    -0.79100
C115        C  0.98714206  0.24522886  0.27300210     0.80800
N116        N  0.98845976  0.22044248  0.27321550    -0.77500
C117        C  0.99891196  0.20839450  0.24720390     0.83300
N118        N  0.00802994  0.22120893  0.22102503    -0.77400
C119        C  0.00703343  0.24598987  0.22091604     0.83400
N120        N  0.99657998  0.25791872  0.24690102    -0.79100
O121        O  0.03337596  0.99358267  0.27038228    -0.71200
O122        O  0.96409737  0.98988489  0.27027216    -0.71400
O123        O  0.00055900  0.95696127  0.27067621    -0.71200
O124        O  0.99707004  0.02641904  0.26964321    -0.71200
O125        O  0.00063273  0.02596422  0.21559096    -0.71200
O126        O  0.99686603  0.95658501  0.21664810    -0.71200
O127        O  0.96404669  0.99316339  0.21618027    -0.71200
O128        O  0.03349361  0.98951307  0.21638939    -0.71300
V129        V  0.99874655  0.99170362  0.26924699     1.35200
V130        V  0.99875370  0.99130114  0.21718251     1.35200
C131        C  0.04523618  0.99155829  0.24348928     0.78100
C132        C  0.95228197  0.99159143  0.24327848     0.78100
C133        C  0.99883382  0.94494282  0.24378141     0.78000
C134        C  0.99897346  0.03799216  0.24243816     0.78000
C135        C  0.74462794  0.97497515  0.27075347     0.80800
N136        N  0.73228103  0.98727278  0.24660276    -0.77500
C137        C  0.74466320  0.00019407  0.22310050     0.83300
N138        N  0.76946809  0.00062104  0.22366433    -0.77400
C139        C  0.78188977  0.98862833  0.24793924     0.83400
N140        N  0.76942090  0.97593778  0.27159610    -0.79100
C141        C  0.01275202  0.73688044  0.27673189     0.80800
N142        N  0.00106814  0.72440015  0.25211621    -0.77500
C143        C  0.99003146  0.73656529  0.22672327     0.83300
N144        N  0.99091376  0.76138247  0.22580957    -0.77400
C145        C  0.00245661  0.77405464  0.25038746     0.83400
N146        N  0.01326342  0.76173333  0.27591260    -0.79100
C147        C  0.25345177  0.00276835  0.27424962     0.80800
N148        N  0.26551637  0.99119285  0.24927043    -0.77500
C149        C  0.25301670  0.97963734  0.22456271     0.83300
N150        N  0.22818309  0.97981957  0.22481581    -0.77400
C151        C  0.21591936  0.99117372  0.24994676     0.83400
N152        N  0.22862161  0.00260136  0.27466003    -0.79100
N153        N  0.12063684  0.36626139  0.05107944    -0.36000
N154        N  0.09605873  0.33910571  0.99702416    -0.56500
N155        N  0.12377539  0.36657325  0.94825204    -0.36000
N156        N  0.15193188  0.38981539  0.00229165    -0.56500
C157        C  0.10910629  0.34835193  0.06820201     0.27600
C158        C  0.13872085  0.37498171  0.07095167     0.27600
C159        C  0.11369464  0.34917574  0.92848881     0.27600
C160        C  0.14275117  0.37633696  0.93124479     0.27600
C161        C  0.08193006  0.33239368  0.02310840     0.36200
C162        C  0.08392605  0.33216612  0.96912912     0.36200
C163        C  0.15877333  0.40234118  0.02989179     0.36200
C164        C  0.16007250  0.40289558  0.97593078     0.36200
C165        C  0.11991933  0.34570307  0.09934097    -0.21300
C166        C  0.13862561  0.36249337  0.10105376    -0.21300
C167        C  0.12642962  0.34796540  0.89858481    -0.19300
C168        C  0.14467733  0.36519765  0.90026454    -0.21300
C169        C  0.06080319  0.32102101  0.01174670    -0.22300
C170        C  0.06210163  0.32082919  0.97754027    -0.22300
C171        C  0.17142371  0.42333091  0.02099650    -0.22300
C172        C  0.17226677  0.42366556  0.98679249    -0.22300
C173        C  0.08851611  0.33497206  0.05702073    -0.17700
C174        C  0.15472860  0.39445972  0.06298753    -0.17700
C175        C  0.15768165  0.39581181  0.94223653    -0.17700
C176        C  0.09285328  0.33494358  0.93626576    -0.17700
H177        H  0.11497085  0.33287192  0.11876987     0.15200
H178        H  0.15085777  0.36506475  0.12201593     0.15200
H179        H  0.12308069  0.33585102  0.87770848     0.15200
H180        H  0.15796368  0.36899352  0.88091842     0.15200
H181        H  0.04601436  0.31353575  0.02652385     0.13500
H182        H  0.04849443  0.31325927  0.96082626     0.13500
H183        H  0.17913838  0.43707304  0.03736662     0.13500
H184        H  0.18084520  0.43764750  0.97166486     0.13500
H185        H  0.11551235  0.37300447  0.02787873     0.26800
H186        H  0.11733414  0.37248469  0.97124340     0.26800
N187        N  0.62380678  0.11863175  0.05385002    -0.36000
N188        N  0.59963814  0.14628556  0.00115064    -0.56500
N189        N  0.62471999  0.11653864  0.95070897    -0.36000
N190        N  0.65279238  0.09276513  0.00336455    -0.56500
C191        C  0.61341666  0.13682486  0.07184435     0.27600
C192        C  0.64156080  0.10865000  0.07301758     0.27600
C193        C  0.61474977  0.13421593  0.93145221     0.27600
C194        C  0.64280751  0.10602410  0.93270086     0.27600
C195        C  0.58647925  0.15407838  0.02769357     0.36200
C196        C  0.58696928  0.15291039  0.97361815     0.36200
C197        C  0.65962238  0.08031321  0.03095593     0.36200
C198        C  0.66010641  0.07925285  0.97691880     0.36200
C199        C  0.62453449  0.13823155  0.10290437    -0.21300
C200        C  0.64231631  0.12053774  0.10360852    -0.21300
C201        C  0.62650724  0.13479966  0.90078015    -0.21300
C202        C  0.64418349  0.11701137  0.90155521    -0.21300
C203        C  0.56545044  0.16575682  0.01694052    -0.22300
C204        C  0.56577266  0.16504443  0.98271934    -0.22300
C205        C  0.67137148  0.05886089  0.02195877    -0.22300
C206        C  0.67165483  0.05818589  0.98774986    -0.22300
C207        C  0.59374920  0.15176949  0.06144487    -0.17700
C208        C  0.65656403  0.08860512  0.06412050    -0.17700
C209        C  0.65763201  0.08632592  0.94316955    -0.17700
C210        C  0.59482120  0.14930741  0.94036421    -0.17700
H211        H  0.62045705  0.15087281  0.12292243     0.15200
H212        H  0.65454131  0.11700949  0.12428873     0.15200
H213        H  0.62289420  0.14692519  0.88002913     0.15200
H214        H  0.65677038  0.11283301  0.88151877     0.15200
H215        H  0.55125670  0.17386837  0.03210248     0.13500
H216        H  0.55189462  0.17254377  0.96644190     0.13500
H217        H  0.67888052  0.04502524  0.03827646     0.13500
H218        H  0.67942170  0.04375996  0.97265076     0.13500
H219        H  0.61832182  0.11256432  0.03046226     0.26800
H220        H  0.61869253  0.11117391  0.97416085     0.26800
N221        N  0.87765100  0.61251809  0.05470090    -0.36000
N222        N  0.90106517  0.64307425  0.00356575    -0.56500
N223        N  0.87661021  0.61483599  0.95148318    -0.36000
N224        N  0.84922099  0.58807070  0.00274482    -0.56500
C225        C  0.88762416  0.63045887  0.07362962     0.27600
C226        C  0.85988044  0.60177041  0.07316570     0.27600
C227        C  0.88661100  0.63298764  0.93295938     0.27600
C228        C  0.85935163  0.60381015  0.93246533     0.27600
C229        C  0.91413212  0.65005107  0.03060718     0.36200
C230        C  0.91334952  0.65151163  0.97661020     0.36200
C231        C  0.84245929  0.57450909  0.02942974     0.36200
C232        C  0.84234810  0.57532500  0.97536320     0.36200
C233        C  0.87624541  0.63093361  0.10456165    -0.21300
C234        C  0.85874054  0.61290495  0.10424893    -0.21300
C235        C  0.87587610  0.63324638  0.90160956    -0.21300
C236        C  0.85863647  0.61490652  0.90131618    -0.21300
C237        C  0.93469610  0.66305995  0.02075449    -0.22300
C238        C  0.93414104  0.66406462  0.98657585    -0.22300
C239        C  0.83121331  0.55311108  0.01897949    -0.22300
C240        C  0.83119766  0.55359594  0.98474180    -0.22300
C241        C  0.90710917  0.64603885  0.06410885    -0.17700
C242        C  0.84511507  0.58177934  0.06307184    -0.17700
C243        C  0.84469146  0.58362292  0.94206330    -0.17700
C244        C  0.90567437  0.64883129  0.94313637    -0.17700
H245        H  0.87985299  0.64325291  0.12513588     0.15200
H246        H  0.84636364  0.60877327  0.12455141     0.15200
H247        H  0.87993104  0.64548369  0.88110690     0.15200
H248        H  0.84683695  0.61039320  0.88049948     0.15200
H249        H  0.94872160  0.67098351  0.03648261     0.13500
H250        H  0.94761099  0.67290841  0.97087209     0.13500
H251        H  0.82384457  0.53861176  0.03437905     0.13500
H252        H  0.82380448  0.53952108  0.96862102     0.13500
H253        H  0.88344474  0.60721452  0.03117733     0.26800
H254        H  0.88196656  0.60956456  0.97515804     0.26800
N255        N  0.37372767  0.86677540  0.04972779    -0.36000
N256        N  0.39863525  0.83768387  0.99800419    -0.56500
N257        N  0.37312600  0.86495804  0.94661582    -0.36000
N258        N  0.34423268  0.89000244  0.99834095    -0.56500
C259        C  0.38551685  0.85018059  0.06885508     0.27600
C260        C  0.35628065  0.87730507  0.06895562     0.27600
C261        C  0.38291966  0.84666325  0.92823193     0.27600
C262        C  0.35490270  0.87484200  0.92831637     0.27600
C263        C  0.41206464  0.83132114  0.02492443     0.36200
C264        C  0.41108397  0.82972565  0.97093000     0.36200
C265        C  0.33672192  0.90301575  0.02514986     0.36200
C266        C  0.33723686  0.90276399  0.97110821     0.36200
C267        C  0.37575749  0.85049844  0.10082913    -0.21300
C268        C  0.35732575  0.86753451  0.10087257    -0.21300
C269        C  0.37085505  0.84504293  0.89785193    -0.21300
C270        C  0.35320016  0.86284103  0.89788700    -0.21300
C271        C  0.43306620  0.81920420  0.01483884    -0.22300
C272        C  0.43240239  0.81813775  0.98066608    -0.22300
C273        C  0.32481319  0.92403449  0.01486130    -0.22300
C274        C  0.32517565  0.92390019  0.98065259    -0.22300
C275        C  0.40509832  0.83502995  0.05856872    -0.17700
C276        C  0.33982265  0.89586014  0.05879738    -0.17700
C277        C  0.34037146  0.89499422  0.93776281    -0.17700
C278        C  0.40299175  0.83195796  0.93761725    -0.17700
H279        H  0.38113602  0.83941404  0.12194906     0.15200
H280        H  0.34587841  0.87200398  0.12202743     0.15200
H281        H  0.37427139  0.83225334  0.87778023     0.15200
H282        H  0.34042036  0.86638841  0.87784132     0.15200
H283        H  0.44746338  0.81191654  0.03043585     0.13500
H284        H  0.44614726  0.80990383  0.96485810     0.13500
H285        H  0.31695221  0.93819981  0.03032447     0.13500
H286        H  0.31749152  0.93786083  0.96468838     0.13500
H287        H  0.37803382  0.87121580  0.02530050     0.26800
H288        H  0.37931567  0.87130330  0.96953767     0.26800
N289        N  0.12676740  0.61545641  0.55371156    -0.36000
N290        N  0.10174841  0.64458007  0.50259900    -0.56500
N291        N  0.12789742  0.61790806  0.45071298    -0.36000
N292        N  0.15676577  0.59280019  0.50199808    -0.56500
C293        C  0.11614477  0.63301694  0.57256232     0.27600
C294        C  0.14501557  0.60560422  0.57216917     0.27600
C295        C  0.11723799  0.63573892  0.43239799     0.27600
C296        C  0.14623648  0.60847882  0.43210591     0.27600
C297        C  0.08832194  0.65071387  0.52968715     0.36200
C298        C  0.08882931  0.65191470  0.47557658     0.36200
C299        C  0.16355067  0.57917016  0.52859754     0.36200
C300        C  0.16408885  0.58042915  0.47454562     0.36200
C301        C  0.12779795  0.63428048  0.60330653    -0.21300
C302        C  0.14591303  0.61694772  0.60309928    -0.21300
C303        C  0.12891702  0.63758496  0.40175858    -0.21300
C304        C  0.14716689  0.62034932  0.40154460    -0.21300
C305        C  0.06688416  0.66208604  0.51979691    -0.22300
C306        C  0.06722523  0.66287473  0.48556570    -0.22300
C307        C  0.17525302  0.55812209  0.51796622    -0.22300
C308        C  0.17563851  0.55894300  0.48375653    -0.22300
C309        C  0.09570916  0.64735210  0.56323382    -0.17700
C310        C  0.16035416  0.58611516  0.56233102    -0.17700
C311        C  0.16145594  0.58876042  0.44133670    -0.17700
C312        C  0.09667057  0.64971653  0.44206488    -0.17700
H313        H  0.12389827  0.64658964  0.62375802     0.15200
H314        H  0.15850720  0.61334725  0.62334555     0.15200
H315        H  0.12479992  0.65010536  0.38163066     0.15200
H316        H  0.15974587  0.61699961  0.38120521     0.15200
H317        H  0.05239441  0.66900866  0.53553242     0.13500
H318        H  0.05307239  0.67052287  0.46987338     0.13500
H319        H  0.18259449  0.54354408  0.53316836     0.13500
H320        H  0.18337542  0.54514859  0.46756444     0.13500
H321        H  0.12103668  0.60964812  0.53028276     0.26800
H322        H  0.12213633  0.61157922  0.47383435     0.26800
N323        N  0.37104308  0.11840824  0.55226273    -0.36000
N324        N  0.34191063  0.09411973  0.50042002    -0.56500
N325        N  0.37058717  0.11895115  0.44919193    -0.36000
N326        N  0.39588915  0.14713690  0.50097617    -0.56500
C327        C  0.35352461  0.10772418  0.57118044     0.27600
C328        C  0.38244448  0.13529976  0.57153375     0.27600
C329        C  0.35252655  0.10887034  0.43060712     0.27600
C330        C  0.38053107  0.13722098  0.43092478     0.27600
C331        C  0.33439524  0.08132617  0.52738993     0.36200
C332        C  0.33483740  0.08111076  0.47337487     0.36200
C333        C  0.40923320  0.15386039  0.52790065     0.36200
C334        C  0.40867779  0.15440661  0.47384233     0.36200
C335        C  0.35410859  0.11766257  0.60305807    -0.21300
C336        C  0.37234103  0.13500224  0.60328999    -0.21300
C337        C  0.35107352  0.12072837  0.40010182    -0.21300
C338        C  0.36867068  0.13870974  0.40036001    -0.21300
C339        C  0.32236218  0.06021129  0.51741510    -0.22300
C340        C  0.32272429  0.06002907  0.48319633    -0.22300
C341        C  0.43052089  0.16550657  0.51778069    -0.22300
C342        C  0.43015253  0.16588071  0.48356726    -0.22300
C343        C  0.33746301  0.08880232  0.56090282    -0.17700
C344        C  0.40199446  0.15066557  0.56152006    -0.17700
C345        C  0.40073843  0.15181538  0.44046129    -0.17700
C346        C  0.33789122  0.08873212  0.43996659    -0.17700
H347        H  0.34249278  0.11306145  0.62401265     0.15200
H348        H  0.37737287  0.14627001  0.62443111     0.15200
H349        H  0.33853021  0.11692120  0.37983155     0.15200
H350        H  0.37227201  0.15145363  0.38029028     0.15200
H351        H  0.31433160  0.04625251  0.53312290     0.13500
H352        H  0.31492783  0.04596812  0.46740798     0.13500
H353        H  0.44494362  0.17284890  0.53336496     0.13500
H354        H  0.44420211  0.17360494  0.46772304     0.13500
H355        H  0.37557989  0.11377302  0.52797620     0.26800
H356        H  0.37671043  0.11278548  0.47221973     0.26800
N357        N  0.87716828  0.36801452  0.55143484    -0.36000
N358        N  0.84978542  0.39407038  0.50036964    -0.56500
N359        N  0.87825842  0.36931603  0.44809423    -0.36000
N360        N  0.90152810  0.33918169  0.49903384    -0.56500
C361        C  0.85945316  0.37834355  0.57037576     0.27600
C362        C  0.88738748  0.34996085  0.56974818     0.27600
C363        C  0.86163381  0.38129672  0.42922904     0.27600
C364        C  0.88857135  0.35193954  0.42857463     0.27600
C365        C  0.84136642  0.40600132  0.52761079     0.36200
C366        C  0.84249450  0.40720334  0.47360991     0.36200
C367        C  0.91416097  0.33139290  0.52601295     0.36200
C368        C  0.91404730  0.33137908  0.47192709     0.36200
C369        C  0.85864273  0.36690461  0.60122699    -0.21300
C370        C  0.87619452  0.34899113  0.60081649    -0.21300
C371        C  0.86172598  0.37174602  0.39714007    -0.21300
C372        C  0.87859665  0.35320033  0.39676311    -0.21300
C373        C  0.82853748  0.42666567  0.51807010    -0.22300
C374        C  0.82923314  0.42741342  0.48391339    -0.22300
C375        C  0.93469480  0.31851589  0.51593504    -0.22300
C376        C  0.93454465  0.31840138  0.48174139    -0.22300
C377        C  0.84428729  0.39811285  0.56094918    -0.17700
C378        C  0.90694186  0.33472627  0.55961990    -0.17700
C379        C  0.90708622  0.33531623  0.43837587    -0.17700
C380        C  0.84648265  0.40074695  0.43988853    -0.17700
H381        H  0.84645114  0.37081982  0.62180899     0.15200
H382        H  0.88000221  0.33646416  0.62104494     0.15200
H383        H  0.85052273  0.37726875  0.37619795     0.15200
H384        H  0.88274591  0.34177080  0.37546775     0.15200
H385        H  0.81965051  0.43992990  0.53398019     0.13500
H386        H  0.82091292  0.44131205  0.46844360     0.13500
H387        H  0.94852237  0.31018215  0.53150323     0.13500
H388        H  0.94822981  0.31003545  0.46596432     0.13500
H389        H  0.88280536  0.37362841  0.52794321     0.26800
H390        H  0.88287713  0.37341149  0.47254401     0.26800
N391        N  0.62542449  0.86627745  0.55285080    -0.36000
N392        N  0.59970054  0.83874673  0.50109344    -0.56500
N393        N  0.62602703  0.86616423  0.45007581    -0.36000
N394        N  0.65525887  0.88996832  0.50174032    -0.56500
C395        C  0.61448675  0.84862730  0.57120692     0.27600
C396        C  0.64390378  0.87550602  0.57149274     0.27600
C397        C  0.61588616  0.84793379  0.43182474     0.27600
C398        C  0.64505670  0.87509617  0.43223101     0.27600
C399        C  0.58614614  0.83239431  0.52792961     0.36200
C400        C  0.58659482  0.83215079  0.47390743     0.36200
C401        C  0.66231477  0.90286608  0.52885079     0.36200
C402        C  0.66246647  0.90304120  0.47487238     0.36200
C403        C  0.62607141  0.84672639  0.60191932    -0.21300
C404        C  0.64460071  0.86374063  0.60212620    -0.21300
C405        C  0.62860790  0.84526724  0.40212362    -0.21300
C406        C  0.64700863  0.86241308  0.40236952    -0.21300
C407        C  0.56439437  0.82165148  0.51775245    -0.22300
C408        C  0.56467608  0.82150772  0.48349129    -0.22300
C409        C  0.67407261  0.92419322  0.51920277    -0.22300
C410        C  0.67408465  0.92435465  0.48496888    -0.22300
C411        C  0.59381014  0.83481529  0.56142937    -0.17700
C412        C  0.65953395  0.89488724  0.56211023    -0.17700
C413        C  0.66003999  0.89505154  0.44152008    -0.17700
C414        C  0.59487365  0.83431370  0.44068204    -0.17700
H415        H  0.62174454  0.83428279  0.62207397     0.15200
H416        H  0.65723690  0.86697629  0.62247031     0.15200
H417        H  0.62510489  0.83221438  0.38237130     0.15200
H418        H  0.66041194  0.86510150  0.38283562     0.15200
H419        H  0.54984527  0.81460735  0.53335233     0.13500
H420        H  0.55039302  0.81433561  0.46752030     0.13500
H421        H  0.68178072  0.93822973  0.53511252     0.13500
H422        H  0.68177866  0.93857995  0.46941271     0.13500
H423        H  0.61978869  0.87254244  0.52962064     0.26800
H424        H  0.61946416  0.87307981  0.47252089     0.26800
C425        C  0.31714660  0.05453788  0.37120134     0.30400
C426        C  0.31917681  0.04008631  0.34237906    -0.35900
C427        C  0.29709179  0.03167195  0.32866370     0.16400
C428        C  0.27457993  0.03715500  0.34228524     0.22200
C429        C  0.27256969  0.05153790  0.37111301    -0.34100
C430        C  0.29461507  0.05987044  0.38488015     0.16300
O431        O  0.33536278  0.06418070  0.38836530    -0.26100
C432        C  0.32429450  0.07561549  0.41347070     0.06100
C433        C  0.29897058  0.07367317  0.41247675    -0.31000
O434        O  0.25628919  0.02760858  0.32520556    -0.22800
C435        C  0.26720267  0.01580332  0.30032866    -0.02800
C436        C  0.29258891  0.01766264  0.30123998    -0.17200
H437        H  0.33671820  0.03568542  0.33145806     0.20800
H438        H  0.25503391  0.05590664  0.38206906     0.19100
H439        H  0.28579280  0.08119469  0.42978841     0.19100
H440        H  0.30575569  0.01000909  0.28401206     0.15000
C441        C  0.31699325  0.92830591  0.12803262     0.30400
C442        C  0.31850427  0.94154831  0.15790285    -0.35900
C443        C  0.29637081  0.95034222  0.17063945     0.16400
C444        C  0.27412765  0.94629795  0.15529341     0.22200
C445        C  0.27259073  0.93300862  0.12529603    -0.34100
C446        C  0.29483913  0.92430166  0.11240550     0.16300
O447        O  0.33554397  0.91876243  0.11161890    -0.26100
C448        C  0.32526092  0.90857082  0.08491600     0.06100
C449        C  0.29992178  0.91133912  0.08417125    -0.31000
O450        O  0.25575131  0.95611906  0.17196877    -0.22800
C451        C  0.26649462  0.96663743  0.19819203    -0.02800
C452        C  0.29172033  0.96363923  0.19853986    -0.17200
H453        H  0.33578535  0.94487431  0.17029144     0.20800
H454        H  0.25531858  0.92976063  0.11284473     0.19100
H455        H  0.28720877  0.90486576  0.06540814     0.19100
H456        H  0.30473014  0.97013002  0.21691575     0.15000
C457        C  0.04052585  0.69452701  0.33050189     0.30400
C458        C  0.04918263  0.67156100  0.34068176    -0.35900
C459        C  0.06207573  0.67106319  0.37099116     0.16400
C460        C  0.06595490  0.69167837  0.39017255     0.22200
C461        C  0.05730598  0.71462960  0.37998439    -0.34100
C462        C  0.04465013  0.71517909  0.34950816     0.16300
O463        O  0.02851776  0.69932482  0.30268036    -0.26100
C464        C  0.02504442  0.72339883  0.30376651     0.06100
C465        C  0.03470049  0.73421069  0.33234569    -0.31000
O466        O  0.07850781  0.68703385  0.41758422    -0.22800
C467        C  0.08291810  0.66314729  0.41583564    -0.02800
C468        C  0.07308998  0.65226228  0.38738649    -0.17200
H469        H  0.04630486  0.65527264  0.32583145     0.20800
H470        H  0.06045463  0.73096800  0.39462633     0.19100
H471        H  0.03456809  0.75332922  0.33929680     0.19100
H472        H  0.07393639  0.63325039  0.38001105     0.15000
C473        C  0.96097220  0.69350018  0.17543340     0.30400
C474        C  0.95289545  0.67021520  0.16570040    -0.35900
C475        C  0.94006552  0.66907316  0.13545204     0.16400
C476        C  0.93547729  0.68942946  0.11611591     0.22200
C477        C  0.94347066  0.71272683  0.12590101    -0.34100
C478        C  0.95629828  0.71387492  0.15616632     0.16300
O479        O  0.97349014  0.69875270  0.20263427    -0.26100
C480        C  0.97684307  0.72280771  0.20081796     0.06100
C481        C  0.96649275  0.73321369  0.17246712    -0.31000
O482        O  0.92331739  0.68411998  0.08865613    -0.22800
C483        C  0.92000129  0.66006045  0.09047372    -0.02800
C484        C  0.93009947  0.64970237  0.11901939    -0.17200
H485        H  0.95645017  0.65411485  0.18060039     0.20800
H486        H  0.94000165  0.72880473  0.11091726     0.19100
H487        H  0.96656634  0.75221209  0.16494480     0.19100
H488        H  0.93015816  0.63067075  0.12638005     0.15000
C489        C  0.68193698  0.92386603  0.36899761     0.30400
C490        C  0.68035493  0.93394715  0.33690271    -0.35900
C491        C  0.70211181  0.94355229  0.32386181     0.16400
C492        C  0.72398531  0.94304876  0.34106112     0.22200
C493        C  0.72558711  0.93286180  0.37311903    -0.34100
C494        C  0.70376922  0.92344950  0.38627719     0.16300
O495        O  0.66378749  0.91416915  0.38609078    -0.26100
C496        C  0.67405410  0.90758477  0.41482134     0.06100
C497        C  0.69896699  0.91277312  0.41624292    -0.31000
O498        O  0.74191405  0.95359751  0.32442746    -0.22800
C499        C  0.73132818  0.96112890  0.29635991    -0.02800
C500        C  0.70660300  0.95529554  0.29456189    -0.17200
H501        H  0.66328895  0.93454545  0.32324442     0.20800
H502        H  0.74257114  0.93258464  0.38698811     0.19100
H503        H  0.71165972  0.90903648  0.43633344     0.19100
H504        H  0.69377173  0.95944256  0.27478782     0.15000
C505        C  0.69940067  0.05910945  0.11564900     0.30400
C506        C  0.72232042  0.04973818  0.12462403    -0.35900
C507        C  0.72306173  0.03630084  0.15439673     0.16400
C508        C  0.70264924  0.03225563  0.17391137     0.22200
C509        C  0.67978258  0.04181497  0.16508066    -0.34100
C510        C  0.67905419  0.05531756  0.13537331     0.16300
O511        O  0.69436335  0.07158136  0.08837921    -0.26100
C512        C  0.67050286  0.07596868  0.09076276     0.06100
C513        C  0.66002217  0.06628335  0.11951126    -0.31000
O514        O  0.70744041  0.01881866  0.20041184    -0.22800
C515        C  0.73125520  0.01432142  0.19793295    -0.02800
C516        C  0.74195593  0.02479953  0.16985598    -0.17200
H517        H  0.73838676  0.05253235  0.10931544     0.20800
H518        H  0.66364875  0.03874996  0.18015611     0.19100
H519        H  0.64103847  0.06676440  0.12708838     0.19100
H520        H  0.76086076  0.02396051  0.16196560     0.15000
C521        C  0.10783120  0.99466654  0.26172251     0.30400
C522        C  0.12866752  0.99868668  0.28151310    -0.35900
C523        C  0.15126725  0.99507414  0.26569088     0.16400
C524        C  0.15318388  0.98774056  0.23281090     0.22200
C525        C  0.13237816  0.98388136  0.21301315    -0.34100
C526        C  0.10982398  0.98773542  0.22869324     0.16300
O527        O  0.08488588  0.99691890  0.27132609    -0.26100
C528        C  0.07206994  0.99153580  0.24401118     0.06100
C529        C  0.08661444  0.98574312  0.21670275    -0.31000
O530        O  0.17605456  0.98524005  0.22310221    -0.22800
C531        C  0.18903161  0.99126038  0.24997369    -0.02800
C532        C  0.17458705  0.99759769  0.27725393    -0.17200
H533        H  0.12734905  0.00429632  0.30736785     0.20800
H534        H  0.13369456  0.97832089  0.18714077     0.19100
H535        H  0.08089206  0.98060518  0.19178694     0.19100
H536        H  0.18043073  0.00312329  0.30196462     0.15000
C537        C  0.00474201  0.88231617  0.26086488     0.30400
C538        C  0.01031115  0.86160511  0.28006970    -0.35900
C539        C  0.00687294  0.83891788  0.26437552     0.16400
C540        C  0.99836103  0.83671120  0.23206705     0.22200
C541        C  0.99306542  0.85744049  0.21269963    -0.34100
C542        C  0.99665935  0.88014941  0.22833910     0.16300
O543        O  0.00636150  0.90528760  0.27071960    -0.26100
C544        C  0.99940934  0.91804315  0.24408427     0.06100
C545        C  0.99323300  0.90336582  0.21693818    -0.31000
O546        O  0.99578478  0.81369107  0.22277262    -0.22800
C547        C  0.00292427  0.80098217  0.24939631    -0.02800
C548        C  0.01012542  0.81574315  0.27596088    -0.17200
H549        H  0.01673136  0.86307397  0.30555849     0.20800
H550        H  0.98644439  0.85596452  0.18730575     0.19100
H551        H  0.98698466  0.90900721  0.19248607     0.19100
H552        H  0.01637249  0.81018336  0.30044854     0.15000
C553        C  0.84443762  0.99454266  0.23177326     0.30400
C554        C  0.86523795  0.99951913  0.21248075    -0.35900
C555        C  0.88777595  0.99556600  0.22817417     0.16400
C556        C  0.88972338  0.98756813  0.26075658     0.22200
C557        C  0.86890767  0.98244205  0.27999635    -0.34100
C558        C  0.84635996  0.98611017  0.26415260     0.16300
O559        O  0.82157011  0.99674860  0.22196419    -0.26100
C560        C  0.80867828  0.98940085  0.24826182     0.06100
C561        C  0.82310868  0.98253014  0.27525618    -0.31000
O562        O  0.91262704  0.98527446  0.27045265    -0.22800
C563        C  0.92548007  0.99165814  0.24363141    -0.02800
C564        C  0.91100638  0.99820085  0.21655394    -0.17200
H565        H  0.86393326  0.00587018  0.18695482     0.20800
H566        H  0.87020754  0.97590383  0.30543451     0.19100
H567        H  0.81729553  0.97593189  0.29946870     0.19100
H568        H  0.91678614  0.00412299  0.19200471     0.15000
C569        C  0.96115736  0.28778339  0.32749546     0.30400
C570        C  0.95437091  0.31113693  0.33832694    -0.35900
C571        C  0.94092485  0.31209676  0.36801085     0.16400
C572        C  0.93461934  0.29151067  0.38597894     0.22200
C573        C  0.94148573  0.26806766  0.37517190    -0.34100
C574        C  0.95491356  0.26710031  0.34532090     0.16300
O575        O  0.97342353  0.28276231  0.30009740    -0.26100
C576        C  0.97514341  0.25854143  0.30025052     0.06100
C577        C  0.96396775  0.24774805  0.32780378    -0.31000
O578        O  0.92187068  0.29679196  0.41299240    -0.22800
C579        C  0.91988633  0.32105806  0.41210220    -0.02800
C580        C  0.93153016  0.33152395  0.38476090    -0.17200
H581        H  0.95910652  0.32743054  0.32442435     0.20800
H582        H  0.93658420  0.25175792  0.38893282     0.19100
H583        H  0.96250438  0.22851003  0.33379007     0.19100
H584        H  0.93287402  0.35068513  0.37829886     0.15000
C585        C  0.05713927  0.29278509  0.10700232     0.30400
C586        C  0.04946080  0.26957094  0.11732306    -0.35900
C587        C  0.03643569  0.26874823  0.14735170     0.16400
C588        C  0.03107004  0.28936621  0.16581492     0.22200
C589        C  0.03859104  0.31265100  0.15534678    -0.34100
C590        C  0.05189808  0.31343788  0.12548138     0.16300
O591        O  0.07043646  0.29760289  0.08044751    -0.26100
C592        C  0.07388437  0.32161458  0.08204615     0.06100
C593        C  0.06274179  0.33249563  0.10945752    -0.31000
O594        O  0.01957941  0.28416675  0.19383016    -0.22800
C595        C  0.01766843  0.25992733  0.19326895    -0.02800
C596        C  0.02777053  0.24936060  0.16492289    -0.17200
H597        H  0.05387196  0.25323261  0.10334861     0.20800
H598        H  0.03488927  0.32890164  0.16989101     0.19100
H599        H  0.06293256  0.35157202  0.11662409     0.19100
H600        H  0.02908658  0.23016616  0.15863345     0.15000
C601        C  0.99835935  0.10068241  0.25971607     0.30400
C602        C  0.99626966  0.12154717  0.27978220    -0.35900
C603        C  0.99854727  0.14399353  0.26331751     0.16400
C604        C  0.00290608  0.14586035  0.22946448     0.22200
C605        C  0.00499687  0.12495618  0.20932198    -0.34100
C606        C  0.00243273  0.10245123  0.22577749     0.16300
O607        O  0.99655204  0.07788317  0.26997086    -0.26100
C608        C  0.99940387  0.06481813  0.24226503     0.06100
C609        C  0.00307622  0.07910745  0.21394300    -0.31000
O610        O  0.00403421  0.16876176  0.21932303    -0.22800
C611        C  0.00008639  0.18162771  0.24701764    -0.02800
C612        C  0.99660399  0.16719070  0.27513351    -0.17200
H613        H  0.99282365  0.12035897  0.30634054     0.20800
H614        H  0.00812122  0.12615735  0.18268806     0.19100
H615        H  0.00590970  0.07314071  0.18846675     0.19100
H616        H  0.99295686  0.17297202  0.30049547     0.15000
C617        C  0.68138016  0.92759824  0.63132394     0.30400
C618        C  0.67951262  0.94163044  0.66044044    -0.35900
C619        C  0.70149991  0.95101734  0.67299436     0.16400
C620        C  0.72387764  0.94672621  0.65820525     0.22200
C621        C  0.72576031  0.93262598  0.62905606    -0.34100
C622        C  0.70370275  0.92340333  0.61630106     0.16300
O623        O  0.66303302  0.91777973  0.61473778    -0.26100
C624        C  0.67370490  0.90734506  0.58858670     0.06100
C625        C  0.69900263  0.91006818  0.58834955    -0.31000
O626        O  0.74207028  0.95727267  0.67441507    -0.22800
C627        C  0.73110450  0.96852699  0.69975649    -0.02800
C628        C  0.70589087  0.96529878  0.70005666    -0.17200
H629        H  0.66209541  0.94523501  0.67224643     0.20800
H630        H  0.74313768  0.92929970  0.61699202     0.19100
H631        H  0.71188849  0.90356929  0.56988750     0.19100
H632        H  0.69274916  0.97226388  0.71785962     0.15000
C633        C  0.72240712  0.03762510  0.84454403     0.30400
C634        C  0.72396694  0.04949967  0.87553123    -0.35900
C635        C  0.70178394  0.05762735  0.88906387     0.16400
C636        C  0.67961915  0.05442103  0.87312865     0.22200
C637        C  0.67805037  0.04247715  0.84222312    -0.34100
C638        C  0.70019785  0.03424618  0.82878887     0.16300
O639        O  0.74080933  0.02849701  0.82736459    -0.26100
C640        C  0.73020078  0.01907037  0.80035726     0.06100
C641        C  0.70496564  0.02210199  0.79991143    -0.31000
O642        O  0.66123111  0.06382275  0.89000940    -0.22800
C643        C  0.67169933  0.07298257  0.91729184    -0.02800
C644        C  0.69692730  0.06973498  0.91799280    -0.17200
H645        H  0.74125015  0.05221711  0.88818453     0.20800
H646        H  0.66077507  0.03981462  0.82952601     0.19100
H647        H  0.69204453  0.01617832  0.78106857     0.19100
H648        H  0.70977307  0.07575886  0.93686392     0.15000
C649        C  0.96221503  0.28693105  0.66889050     0.30400
C650        C  0.95362498  0.31012746  0.65995217    -0.35900
C651        C  0.94050252  0.31135740  0.62999157     0.16400
C652        C  0.93609732  0.29116006  0.61019307     0.22200
C653        C  0.94458937  0.26791919  0.61921565    -0.34100
C654        C  0.95770997  0.26667506  0.64923293     0.16300
O655        O  0.97510194  0.28167916  0.69568386    -0.26100
C656        C  0.97882475  0.25773884  0.69329091     0.06100
C657        C  0.96837551  0.24737240  0.66493237    -0.31000
O658        O  0.92365948  0.29658192  0.58304655    -0.22800
C659        C  0.91999869  0.32054319  0.58555885    -0.02800
C660        C  0.93014318  0.33072874  0.61422648    -0.17200
H661        H  0.95704690  0.32610945  0.67520743     0.20800
H662        H  0.94128171  0.25196855  0.60385498     0.19100
H663        H  0.96870683  0.22845584  0.65702388     0.19100
H664        H  0.93003686  0.34966823  0.62204643     0.15000
C665        C  0.04524819  0.28765403  0.81925500     0.30400
C666        C  0.05310790  0.31092245  0.82958669    -0.35900
C667        C  0.06376186  0.31216287  0.86144728     0.16400
C668        C  0.06654708  0.29191755  0.88163962     0.22200
C669        C  0.05897683  0.26867212  0.87113856    -0.34100
C670        C  0.04833258  0.26742351  0.83937953     0.16300
O671        O  0.03391115  0.28232414  0.79107631    -0.26100
C672        C  0.02985565  0.25835616  0.79320638     0.06100
C673        C  0.03856047  0.24812389  0.82261856    -0.31000
O674        O  0.07672531  0.29722288  0.91058058    -0.22800
C675        C  0.08066069  0.32118391  0.90894310    -0.02800
C676        C  0.07287366  0.33148594  0.87897155    -0.17200
H677        H  0.05078569  0.32695328  0.81409625     0.20800
H678        H  0.06100999  0.25269659  0.88680557     0.19100
H679        H  0.03726504  0.22932057  0.83082561     0.19100
H680        H  0.07393389  0.35041936  0.87127610     0.15000
C681        C  0.27301957  0.04040160  0.66033525     0.30400
C682        C  0.27104701  0.05402207  0.63074358    -0.35900
C683        C  0.29320317  0.06155361  0.61631130     0.16400
C684        C  0.31566873  0.05621215  0.63022352     0.22200
C685        C  0.31761213  0.04269399  0.65975326    -0.34100
C686        C  0.29554337  0.03504911  0.67401994     0.16300
O687        O  0.25480760  0.03100464  0.67774002    -0.26100
C688        C  0.26590083  0.01947508  0.70277025     0.06100
C689        C  0.29121972  0.02144403  0.70174396    -0.31000
O690        O  0.33404428  0.06497992  0.61270101    -0.22800
C691        C  0.32328849  0.07595520  0.58705283    -0.02800
C692        C  0.29787429  0.07448590  0.58795613    -0.17200
H693        H  0.25352433  0.05824427  0.61961902     0.20800
H694        H  0.33514284  0.03827843  0.67070780     0.19100
H695        H  0.30450413  0.01374764  0.71877101     0.19100
H696        H  0.28486505  0.08195277  0.57035471     0.15000
C697        C  0.29802151  0.92434631  0.88582181     0.30400
C698        C  0.27499892  0.93285283  0.87600462    -0.35900
C699        C  0.27441645  0.94637222  0.84635998     0.16400
C700        C  0.29506469  0.95130339  0.82769643     0.22200
C701        C  0.31810191  0.94264883  0.83741113    -0.34100
C702        C  0.31866542  0.92902714  0.86701674     0.16300
O703        O  0.30280664  0.91168082  0.91295422    -0.26100
C704        C  0.32679606  0.90808125  0.91139983     0.06100
C705        C  0.33765890  0.91842658  0.88336956    -0.31000
O706        O  0.29024303  0.96446532  0.80095911    -0.22800
C707        C  0.26619386  0.96787424  0.80250801    -0.02800
C708        C  0.25538494  0.95700098  0.83017927    -0.17200
H709        H  0.25870125  0.92925767  0.89052829     0.20800
H710        H  0.33442275  0.94633528  0.82297783     0.19100
H711        H  0.35678613  0.91840183  0.87645314     0.19100
H712        H  0.23629536  0.95694890  0.83729159     0.15000
C713        C  0.88916964  0.99720822  0.76663254     0.30400
C714        C  0.86800203  0.00437343  0.78375759    -0.35900
C715        C  0.84575326  0.99899889  0.76792464     0.16400
C716        C  0.84438667  0.98716987  0.73751743     0.22200
C717        C  0.86554136  0.98013170  0.72031488    -0.34100
C718        C  0.88778154  0.98577310  0.73594119     0.16300
O719        O  0.91191430  0.00043893  0.77671674    -0.26100
C720        C  0.92519807  0.99121860  0.75193447     0.06100
C721        C  0.91118386  0.98190355  0.72589837    -0.31000
O722        O  0.82167720  0.98387296  0.72740843    -0.22800
C723        C  0.80833130  0.99385350  0.75156453    -0.02800
C724        C  0.82233129  0.00358191  0.77738482    -0.17200
H725        H  0.86882052  0.01357931  0.80765930     0.20800
H726        H  0.86472275  0.97102888  0.69633899     0.19100
H727        H  0.91738410  0.97334356  0.70305892     0.19100
H728        H  0.81612922  0.01262511  0.79987204     0.15000
C729        C  0.99577861  0.09899738  0.73636682     0.30400
C730        C  0.99053730  0.11978763  0.71720980    -0.35900
C731        C  0.99604325  0.14236118  0.73200682     0.16400
C732        C  0.00616141  0.14441323  0.76345815     0.22200
C733        C  0.01113523  0.12359061  0.78284574    -0.34100
C734        C  0.00546161  0.10095832  0.76809543     0.16300
O735        O  0.99257077  0.07610623  0.72700147    -0.26100
C736        C  0.00007799  0.06314130  0.75313590     0.06100
C737        C  0.00817583  0.07762590  0.77955840    -0.31000
O738        O  0.01025787  0.16737448  0.77203519    -0.22800
C739        C  0.00249370  0.18015644  0.74579928    -0.02800
C740        C  0.99340791  0.16552857  0.72021245    -0.17200
H741        H  0.98285623  0.11844401  0.69236545     0.20800
H742        H  0.01900303  0.12493391  0.80758167     0.19100
H743        H  0.01539601  0.07178663  0.80341533     0.19100
H744        H  0.98611277  0.17115981  0.69630140     0.15000
C745        C  0.10769266  0.99057397  0.73604368     0.30400
C746        C  0.12875537  0.99521748  0.71708836    -0.35900
C747        C  0.15108255  0.99273300  0.73392591     0.16400
C748        C  0.15263137  0.98575417  0.76698059     0.22200
C749        C  0.13157198  0.98111724  0.78594533    -0.34100
C750        C  0.10922547  0.98394553  0.76923720     0.16300
O751        O  0.08490753  0.99256960  0.72565318    -0.26100
C752        C  0.07168974  0.98731826  0.75260819     0.06100
C753        C  0.08583278  0.98177868  0.78044105    -0.31000
O754        O  0.17539417  0.98462479  0.77768543    -0.22800
C755        C  0.18854935  0.99123789  0.75123909    -0.02800
C756        C  0.17441072  0.99652100  0.72332237    -0.17200
H757        H  0.12778873  0.00075697  0.69118366     0.20800
H758        H  0.13253284  0.97600133  0.81201326     0.19100
H759        H  0.07973714  0.97713650  0.80535742     0.19100
H760        H  0.18047338  0.00219903  0.69879231     0.15000
C761        C  0.06578825  0.68935660  0.61578971     0.30400
C762        C  0.05708743  0.71231808  0.62573570    -0.35900
C763        C  0.04634161  0.71339854  0.65746858     0.16400
C764        C  0.04410443  0.69323784  0.67795026     0.22200
C765        C  0.05277481  0.67023236  0.66797015    -0.34100
C766        C  0.06363643  0.66918573  0.63626250     0.16300
O767        O  0.07697201  0.68436532  0.58746333    -0.26100
C768        C  0.08216000  0.66067740  0.58976594     0.06100
C769        C  0.07410405  0.65023710  0.61953630    -0.31000
O770        O  0.03310147  0.69839431  0.70639757    -0.22800
C771        C  0.02833318  0.72219052  0.70413858    -0.02800
C772        C  0.03624489  0.73248967  0.67427883    -0.17200
H773        H  0.05871644  0.72826442  0.60990780     0.20800
H774        H  0.05122259  0.65429795  0.68383644     0.19100
H775        H  0.07602515  0.63149810  0.62775754     0.19100
H776        H  0.03442144  0.75121549  0.66595696     0.15000
C777        C  0.95656551  0.71413962  0.84696276     0.30400
C778        C  0.93986837  0.71568782  0.87352486    -0.35900
C779        C  0.93301352  0.69341116  0.88824842     0.16400
C780        C  0.94186768  0.67116545  0.87741803     0.22200
C781        C  0.95862519  0.66964885  0.85103574    -0.34100
C782        C  0.96556384  0.69188357  0.83646817     0.16300
O783        O  0.96503690  0.73253482  0.82901792    -0.26100
C784        C  0.97967561  0.72188160  0.80681909     0.06100
C785        C  0.98078181  0.69662776  0.81041092    -0.31000
O786        O  0.93311486  0.65262788  0.89472414    -0.22800
C787        C  0.91860065  0.66310930  0.91711802    -0.02800
C788        C  0.91776488  0.68845026  0.91431175    -0.17200
H789        H  0.93267848  0.73301382  0.88203367     0.20800
H790        H  0.96572664  0.65231558  0.84241759     0.19100
H791        H  0.99084366  0.68361268  0.79543438     0.19100
H792        H  0.90761120  0.70124860  0.92950981     0.15000
C793        C  0.98981959  0.83531371  0.76426205     0.30400
C794        C  0.98383798  0.85641482  0.78242955    -0.35900
C795        C  0.98891454  0.87878198  0.76673154     0.16400
C796        C  0.99876991  0.88030464  0.73507243     0.22200
C797        C  0.00465261  0.85920120  0.71685005    -0.34100
C798        C  0.99994888  0.83684111  0.73276879     0.16300
O799        O  0.98784514  0.81256496  0.77485435    -0.26100
C800        C  0.99697781  0.79934274  0.74992088     0.06100
C801        C  0.00472373  0.81348256  0.72303073    -0.31000
O802        O  0.00248626  0.90308896  0.72550562    -0.22800
C803        C  0.99515812  0.91633084  0.75151087    -0.02800
C804        C  0.98653155  0.90218616  0.77787719    -0.17200
H805        H  0.97634634  0.85546175  0.80740341     0.20800
H806        H  0.01287358  0.86015763  0.69230851     0.19100
H807        H  0.01317164  0.80745087  0.70003099     0.19100
H808        H  0.97967562  0.90828534  0.80181319     0.15000
C809        C  0.82176315  0.55336503  0.87113602     0.30400
C810        C  0.82292354  0.54168783  0.84002381    -0.35900
C811        C  0.80053946  0.53390667  0.82662364     0.16400
C812        C  0.77845964  0.53750522  0.84253951     0.22200
C813        C  0.77729785  0.54921421  0.87369583    -0.34100
C814        C  0.79972850  0.55682748  0.88723882     0.16300
O815        O  0.84046314  0.56209888  0.88819016    -0.26100
C816        C  0.83030449  0.57108405  0.91573487     0.06100
C817        C  0.80500203  0.56839497  0.91646259    -0.31000
O818        O  0.75979959  0.52869847  0.82535761    -0.22800
C819        C  0.77011901  0.51925531  0.79816857    -0.02800
C820        C  0.79541521  0.52198340  0.79766459    -0.17200
H821        H  0.84009086  0.53879021  0.82721174     0.20800
H822        H  0.76013880  0.55209291  0.88653420     0.19100
H823        H  0.79240013  0.57434811  0.93562286     0.19100
H824        H  0.80816593  0.51604470  0.77867614     0.15000
C825        C  0.80104193  0.42757721  0.61209481     0.30400
C826        C  0.77780142  0.43580149  0.62182994    -0.35900
C827        C  0.77708015  0.45063176  0.65042784     0.16400
C828        C  0.79782108  0.45703455  0.66805814     0.22200
C829        C  0.82102510  0.44884609  0.65830703    -0.34100
C830        C  0.82172138  0.43385809  0.62993522     0.16300
O831        O  0.80604137  0.41379203  0.58594870    -0.26100
C832        C  0.83021542  0.41104696  0.58726060     0.06100
C833        C  0.84092261  0.42310114  0.61413784    -0.31000
O834        O  0.79291998  0.47051582  0.69447972    -0.22800
C835        C  0.76870869  0.47276186  0.69391463    -0.02800
C836        C  0.75785521  0.46083143  0.66698133    -0.17200
H837        H  0.76143168  0.43087366  0.60818058     0.20800
H838        H  0.83737802  0.45364917  0.67207566     0.19100
H839        H  0.86012499  0.42425694  0.62049407     0.19100
H840        H  0.73860844  0.45940456  0.66097261     0.15000
C841        C  0.56616019  0.19175500  0.88746490     0.30400
C842        C  0.55818706  0.21487596  0.87705796    -0.35900
C843        C  0.54471912  0.21544517  0.84727753     0.16400
C844        C  0.53933434  0.19467194  0.82910588     0.22200
C845        C  0.54733871  0.17154872  0.83948801    -0.34100
C846        C  0.56095721  0.17100553  0.86913863     0.16300
O847        O  0.57886060  0.18698708  0.91464398    -0.26100
C848        C  0.58198668  0.16289259  0.91359860     0.06100
C849        C  0.57125048  0.15196712  0.88583531    -0.31000
O850        O  0.52665952  0.19945884  0.80190261    -0.22800
C851        C  0.52397302  0.22362123  0.80255675    -0.02800
C852        C  0.53481828  0.23454930  0.83024257    -0.17200
H853        H  0.56226114  0.23127408  0.89114633     0.20800
H854        H  0.54331916  0.15515428  0.82536096     0.19100
H855        H  0.57083375  0.13277530  0.87928854     0.19100
H856        H  0.53546084  0.25375241  0.83670013     0.15000
C857        C  0.45438154  0.21498839  0.65761424     0.30400
C858        C  0.44066159  0.21677218  0.62810010    -0.35900
C859        C  0.43159214  0.19468645  0.61521689     0.16400
C860        C  0.43564854  0.17240143  0.63036682     0.22200
C861        C  0.44937491  0.17063198  0.65983071    -0.34100
C862        C  0.45853957  0.19267433  0.67261549     0.16300
O863        O  0.46443735  0.23327447  0.67418566    -0.26100
C864        C  0.47523788  0.22248240  0.70004207     0.06100
C865        C  0.47221738  0.19724305  0.70028991    -0.31000
O866        O  0.42564961  0.15405430  0.61388637    -0.22800
C867        C  0.41519357  0.16469319  0.58768119    -0.02800
C868        C  0.41816104  0.18997516  0.58733466    -0.17200
H869        H  0.43732997  0.23413433  0.61601116     0.20800
H870        H  0.45274435  0.15326728  0.67188778     0.19100
H871        H  0.47885654  0.18421809  0.71847173     0.19100
H872        H  0.41154196  0.20288824  0.56899260     0.15000
C873        C  0.20410178  0.45464009  0.83564242     0.30400
C874        C  0.18079331  0.44771731  0.84663840    -0.35900
C875        C  0.18013182  0.43248620  0.87466922     0.16400
C876        C  0.20095143  0.42473575  0.89101498     0.22200
C877        C  0.22430726  0.43159332  0.87992940    -0.34100
C878        C  0.22497631  0.44675045  0.85171212     0.16300
O879        O  0.20892695  0.46842078  0.80953183    -0.26100
C880        C  0.23320721  0.46938580  0.80875881     0.06100
C881        C  0.24421230  0.45625478  0.83442107    -0.31000
O882        O  0.19596802  0.41078397  0.91695666    -0.22800
C883        C  0.17168767  0.40948548  0.91689822    -0.02800
C884        C  0.16084732  0.42257541  0.89119688    -0.17200
H885        H  0.16432928  0.45367798  0.83408586     0.20800
H886        H  0.24077061  0.42548474  0.89234620     0.19100
H887        H  0.26351628  0.45378839  0.83928079     0.19100
H888        H  0.14156796  0.42461579  0.88580331     0.15000
C889        C  0.22385436  0.53607480  0.66161287     0.30400
C890        C  0.22557142  0.54746474  0.63033430    -0.35900
C891        C  0.20369466  0.55662114  0.61714123     0.16400
C892        C  0.18161157  0.55480541  0.63360182     0.22200
C893        C  0.17986854  0.54337730  0.66492171    -0.34100
C894        C  0.20176603  0.53409281  0.67805935     0.16300
O895        O  0.24206590  0.52629355  0.67850003    -0.26100
C896        C  0.23154657  0.51780060  0.70610375     0.06100
C897        C  0.20646323  0.52210110  0.70718408    -0.31000
O898        O  0.16350558  0.56477034  0.61664848    -0.22800
C899        C  0.17409799  0.57290759  0.58882098    -0.02800
C900        C  0.19913915  0.56846980  0.58793968    -0.17200
H901        H  0.24278095  0.54906370  0.61718419     0.20800
H902        H  0.16266006  0.54180865  0.67808554     0.19100
H903        H  0.19363014  0.51721305  0.72665160     0.19100
H904        H  0.21208656  0.57343691  0.56865634     0.15000
C905        C  0.61041913  0.49561443  0.76275711     0.30400
C906        C  0.63153939  0.50029482  0.78166041    -0.35900
C907        C  0.65386513  0.49799122  0.76475163     0.16400
C908        C  0.65533903  0.49132188  0.73157815     0.22200
C909        C  0.63419367  0.48684439  0.71257166    -0.34100
C910        C  0.61183477  0.48931728  0.72943814     0.16300
O911        O  0.58768973  0.49668503  0.77361220    -0.26100
C912        C  0.57429993  0.49114153  0.74689461     0.06100
C913        C  0.58833849  0.48642103  0.71863255    -0.31000
O914        O  0.67812841  0.48976493  0.72100943    -0.22800
C915        C  0.69142695  0.49572407  0.74767428    -0.02800
C916        C  0.67728942  0.50110044  0.77559343    -0.17200
H917        H  0.63062175  0.50535631  0.80775624     0.20800
H918        H  0.63511722  0.48173647  0.68649295     0.19100
H919        H  0.58212529  0.48155510  0.69383452     0.19100
H920        H  0.68340567  0.50620273  0.80034951     0.15000
C921        C  0.49491010  0.38156215  0.73532749     0.30400
C922        C  0.48921734  0.36032897  0.71722974    -0.35900
C923        C  0.49415307  0.33811538  0.73332732     0.16400
C924        C  0.50412054  0.33685389  0.76495682     0.22200
C925        C  0.50958348  0.35806635  0.78316195    -0.34100
C926        C  0.50451268  0.38025640  0.76716558     0.16300
O927        O  0.49214646  0.40428703  0.72500332    -0.26100
C928        C  0.49990741  0.41764031  0.75070729     0.06100
C929        C  0.50771660  0.40367770  0.77763991    -0.31000
O930        O  0.50753513  0.31417646  0.77501372    -0.22800
C931        C  0.49951440  0.30072492  0.74957197    -0.02800
C932        C  0.49093389  0.31463790  0.72297564    -0.17200
H933        H  0.48157484  0.36107023  0.69231978     0.20800
H934        H  0.51731452  0.35732453  0.80802095     0.19100
H935        H  0.51498161  0.40991972  0.80131012     0.19100
H936        H  0.48352736  0.30834563  0.69941226     0.15000
C937        C  0.34644520  0.48746115  0.76915554     0.30400
C938        C  0.36777806  0.48194563  0.78716263    -0.35900
C939        C  0.38999391  0.48690081  0.77092328     0.16400
C940        C  0.39113679  0.49632188  0.73899449     0.22200
C941        C  0.36981806  0.50197318  0.72109159    -0.34100
C942        C  0.34762615  0.49727422  0.73745850     0.16300
O943        O  0.32374001  0.48450850  0.77959387    -0.26100
C944        C  0.31019898  0.49270026  0.75433938     0.06100
C945        C  0.32410147  0.50088861  0.72746870    -0.31000
O946        O  0.41380733  0.49912013  0.72837981    -0.22800
C947        C  0.42740619  0.49161875  0.75394476    -0.02800
C948        C  0.41357813  0.48390582  0.78116536    -0.17200
H949        H  0.36710160  0.47441168  0.81212743     0.20800
H950        H  0.37049014  0.50956283  0.69615879     0.19100
H951        H  0.31777720  0.50840867  0.70402112     0.19100
H952        H  0.41999177  0.47682136  0.80482024     0.15000
C953        C  0.45804380  0.78600721  0.82640634     0.30400
C954        C  0.44930208  0.80895067  0.83624275    -0.35900
C955        C  0.43627198  0.80956296  0.86631277     0.16400
C956        C  0.43216328  0.78903981  0.88555425     0.22200
C957        C  0.44078335  0.76599370  0.87558407    -0.34100
C958        C  0.45379127  0.76536877  0.84537135     0.16300
O959        O  0.47063039  0.78134744  0.79913056    -0.26100
C960        C  0.47446295  0.75738794  0.80045402     0.06100
C961        C  0.46439235  0.74643095  0.82867718    -0.31000
O962        O  0.41989185  0.79400777  0.91309314    -0.22800
C963        C  0.41597465  0.81799160  0.91125952    -0.02800
C964        C  0.42577744  0.82859646  0.88269163    -0.17200
H965        H  0.45248659  0.82521532  0.82148781     0.20800
H966        H  0.43763634  0.74973598  0.89036786     0.19100
H967        H  0.46474555  0.72733942  0.83572623     0.19100
H968        H  0.42543149  0.84763087  0.87536605     0.15000
C969        C  0.53746474  0.78862048  0.67125128     0.30400
C970        C  0.54624867  0.81172235  0.66185080    -0.35900
C971        C  0.55941227  0.81260730  0.63184564     0.16400
C972        C  0.56352409  0.79220526  0.61235396     0.22200
C973        C  0.55485891  0.76911319  0.62182988    -0.34100
C974        C  0.54180615  0.76821120  0.65187702     0.16300
O975        O  0.52505641  0.78345958  0.69857679    -0.26100
C976        C  0.52153017  0.75942895  0.69669162     0.06100
C977        C  0.53153387  0.74898225  0.66816621    -0.31000
O978        O  0.57607134  0.79723548  0.58515194    -0.22800
C979        C  0.58019326  0.82114213  0.58734210    -0.02800
C980        C  0.57026772  0.83169667  0.61586817    -0.17200
H981        H  0.54313731  0.82783486  0.67693178     0.20800
H982        H  0.55813679  0.75296965  0.60687706     0.19100
H983        H  0.53150971  0.72994894  0.66077290     0.19100
H984        H  0.57087403  0.85067236  0.62347965     0.15000
C985        C  0.49800341  0.64487023  0.76421959     0.30400
C986        C  0.49417938  0.62379242  0.78337141    -0.35900
C987        C  0.49821221  0.60153447  0.76703898     0.16400
C988        C  0.50534583  0.60005111  0.73403484     0.22200
C989        C  0.50945323  0.62116710  0.71495349    -0.34100
C990        C  0.50557160  0.64346473  0.73138755     0.16300
O991        O  0.49487811  0.66754857  0.77435437    -0.26100
C992        C  0.50069115  0.68087387  0.74777106     0.06100
C993        C  0.50758730  0.66689484  0.72031773    -0.31000
O994        O  0.50743224  0.57727653  0.72364812    -0.22800
C995        C  0.50174726  0.56408629  0.75045828    -0.02800
C996        C  0.49594373  0.57818990  0.77819069    -0.17200
H997        H  0.48830832  0.62468523  0.80914541     0.20800
H998        H  0.51510822  0.62027327  0.68908857     0.19100
H999        H  0.51296083  0.67310363  0.69572482     0.19100
H1000       H  0.49051476  0.57209197  0.80281043     0.15000
C1001       C  0.19785043  0.42254202  0.11601161     0.30400
C1002       C  0.22102463  0.43105783  0.12562950    -0.35900
C1003       C  0.22203186  0.44415949  0.15569284     0.16400
C1004       C  0.20161526  0.44869317  0.17493048     0.22200
C1005       C  0.17842310  0.44005752  0.16539928    -0.34100
C1006       C  0.17744124  0.42683694  0.13537187     0.16300
O1007       O  0.19269784  0.41037911  0.08846674    -0.26100
C1008       C  0.16867803  0.40663687  0.09021489     0.06100
C1009       C  0.15820210  0.41647607  0.11890760    -0.31000
O1010       O  0.20674514  0.46166681  0.20182579    -0.22800
C1011       C  0.23077399  0.46541335  0.19984224    -0.02800
C1012       C  0.24125815  0.45487582  0.17168621    -0.17200
H1013       H  0.23712764  0.42783575  0.11058424     0.20800
H1014       H  0.16226953  0.44353204  0.18023911     0.19100
H1015       H  0.13912840  0.41645920  0.12609002     0.19100
H1016       H  0.26023190  0.45521599  0.16403416     0.15000
C1017       C  0.22416159  0.53744909  0.34284323     0.30400
C1018       C  0.22647729  0.55109518  0.37235181    -0.35900
C1019       C  0.20464280  0.56006376  0.38592602     0.16400
C1020       C  0.18210871  0.55604951  0.37133795     0.22200
C1021       C  0.17979954  0.54239096  0.34186762    -0.34100
C1022       C  0.20159753  0.53325355  0.32845554     0.16300
O1023       O  0.24213839  0.52734342  0.32586898    -0.26100
C1024       C  0.23091039  0.51642300  0.30040356     0.06100
C1025       C  0.20567773  0.51944993  0.30076501    -0.31000
O1026       O  0.16406686  0.56585681  0.38848101    -0.22800
C1027       C  0.17515814  0.57609098  0.41455469    -0.02800
C1028       C  0.20042239  0.57320181  0.41419578    -0.17200
H1029       H  0.24404098  0.55435805  0.38401031     0.20800
H1030       H  0.16221726  0.53897066  0.33034646     0.19100
H1031       H  0.19234869  0.51269959  0.28300318     0.19100
H1032       H  0.21362096  0.57961109  0.43236461     0.15000
C1033       C  0.45549888  0.77075305  0.15566065     0.30400
C1034       C  0.44180243  0.76905635  0.12617359    -0.35900
C1035       C  0.43383015  0.79124699  0.11265214     0.16400
C1036       C  0.43893149  0.81360919  0.12709722     0.22200
C1037       C  0.45270641  0.81531801  0.15654282    -0.34100
C1038       C  0.46072222  0.79310304  0.17005469     0.16300
O1039       O  0.46442372  0.75229087  0.17286341    -0.26100
C1040       C  0.47558044  0.76294896  0.19856015     0.06100
C1041       C  0.47391441  0.78832222  0.19808135    -0.31000
O1042       O  0.42950303  0.83200171  0.11024487    -0.22800
C1043       C  0.41838889  0.82122925  0.08459816    -0.02800
C1044       C  0.42035410  0.79590427  0.08491237    -0.17200
H1045       H  0.43755516  0.75164978  0.11467421     0.20800
H1046       H  0.45680195  0.83271824  0.16816073     0.19100
H1047       H  0.48106947  0.80129671  0.21603438     0.19100
H1048       H  0.41290733  0.78291248  0.06720563     0.15000
C1049       C  0.56457600  0.79239515  0.38817669     0.30400
C1050       C  0.55539140  0.76956010  0.37818148    -0.35900
C1051       C  0.54324608  0.76899900  0.34733765     0.16400
C1052       C  0.54018579  0.78952827  0.32777875     0.22200
C1053       C  0.54949313  0.81233670  0.33767253    -0.34100
C1054       C  0.56178434  0.81285698  0.36840557     0.16300
O1055       O  0.57645975  0.79711419  0.41611544    -0.26100
C1056       C  0.58151831  0.82087659  0.41409796     0.06100
C1057       C  0.57282363  0.83162005  0.38494621    -0.31000
O1058       O  0.52806270  0.78485951  0.30002987    -0.22800
C1059       C  0.52340387  0.76100201  0.30173689    -0.02800
C1060       C  0.53247088  0.75015919  0.33058884    -0.17200
H1061       H  0.55757261  0.75336517  0.39338404     0.20800
H1062       H  0.54731576  0.82853244  0.32246692     0.19100
H1063       H  0.57432083  0.85053154  0.37728239     0.19100
H1064       H  0.53121715  0.73120477  0.33813324     0.15000
C1065       C  0.80112052  0.55306950  0.11407442     0.30400
C1066       C  0.77768147  0.54525719  0.12373886    -0.35900
C1067       C  0.77614704  0.53351903  0.15482867     0.16400
C1068       C  0.79631317  0.52967796  0.17487032     0.22200
C1069       C  0.81967925  0.53750102  0.16524824    -0.34100
C1070       C  0.82119598  0.54925931  0.13427965     0.16300
O1071       O  0.80679617  0.56469948  0.08628068    -0.26100
C1072       C  0.83079600  0.56847577  0.08885032     0.06100
C1073       C  0.84072672  0.55910661  0.11812956    -0.31000
O1074       O  0.79081542  0.51826452  0.20280142    -0.22800
C1075       C  0.76679739  0.51476847  0.20078658    -0.02800
C1076       C  0.75662275  0.52391780  0.17149846    -0.17200
H1077       H  0.76177296  0.54820750  0.10819184     0.20800
H1078       H  0.83556739  0.53466536  0.18087657     0.19100
H1079       H  0.85956811  0.55971879  0.12636818     0.19100
H1080       H  0.73769355  0.52344214  0.16362848     0.15000
C1081       C  0.80229099  0.42751085  0.38818070     0.30400
C1082       C  0.77862090  0.43256511  0.37671780    -0.35900
C1083       C  0.77708464  0.44761481  0.34851736     0.16400
C1084       C  0.79744819  0.45708116  0.33274898     0.22200
C1085       C  0.82113531  0.45207158  0.34426149    -0.34100
C1086       C  0.82267518  0.43691847  0.37236949     0.16300
O1087       O  0.80793851  0.41364757  0.41387821    -0.26100
C1088       C  0.83223535  0.41403791  0.41437042     0.06100
C1089       C  0.84245932  0.42825042  0.38921101    -0.31000
O1090       O  0.79178418  0.47023096  0.30634025    -0.22800
C1091       C  0.76749011  0.46920978  0.30518973    -0.02800
C1092       C  0.75732237  0.45541846  0.33084813    -0.17200
H1093       H  0.76254754  0.42509409  0.38875993     0.20800
H1094       H  0.83722559  0.45924994  0.33193303     0.19100
H1095       H  0.86161260  0.43164089  0.38420214     0.19100
H1096       H  0.73823295  0.45135915  0.33539280     0.15000
C1097       C  0.38950757  0.49660233  0.26294236     0.30400
C1098       C  0.36840018  0.49869046  0.28262154    -0.35900
C1099       C  0.34605487  0.49645535  0.26567201     0.16400
C1100       C  0.34452693  0.49214548  0.23176465     0.22200
C1101       C  0.36563610  0.49031048  0.21202944    -0.34100
C1102       C  0.38798511  0.49277330  0.22892802     0.16300
O1103       O  0.41230297  0.49781007  0.27363290    -0.26100
C1104       C  0.42554302  0.49484226  0.24606510     0.06100
C1105       C  0.41138970  0.49171838  0.21750131    -0.31000
O1106       O  0.32173273  0.49005381  0.22128123    -0.22800
C1107       C  0.30850812  0.49336799  0.24878715    -0.02800
C1108       C  0.32266544  0.49752640  0.27710397    -0.17200
H1109       H  0.36933120  0.50176059  0.30929177     0.20800
H1110       H  0.36470693  0.48706868  0.18539804     0.19100
H1111       H  0.41749202  0.48879023  0.19210956     0.19100
H1112       H  0.31657374  0.50051863  0.30248854     0.15000
C1113       C  0.50012731  0.64804804  0.26559423     0.30400
C1114       C  0.50443810  0.62680578  0.28436345    -0.35900
C1115       C  0.50174635  0.60454208  0.26726714     0.16400
C1116       C  0.49542916  0.60328174  0.23393781     0.22200
C1117       C  0.49087677  0.62450516  0.21528252    -0.34100
C1118       C  0.49335505  0.64673831  0.23243974     0.16300
O1119       O  0.50216418  0.67078512  0.27629413    -0.26100
C1120       C  0.49638653  0.68421330  0.24973500     0.06100
C1121       C  0.49060649  0.67021357  0.22178700    -0.31000
O1122       O  0.49417957  0.58059540  0.22285364    -0.22800
C1123       C  0.49960508  0.56708549  0.24945726    -0.02800
C1124       C  0.50443396  0.58100850  0.27784045    -0.17200
H1125       H  0.50964100  0.62758803  0.31041912     0.20800
H1126       H  0.48581941  0.62373534  0.18917337     0.19100
H1127       H  0.48570667  0.67645451  0.19703398     0.19100
H1128       H  0.50921512  0.57468917  0.30259794     0.15000
C1129       C  0.60803993  0.48665843  0.26348705     0.30400
C1130       C  0.62887903  0.48235860  0.28304595    -0.35900
C1131       C  0.65143486  0.48499429  0.26678357     0.16400
C1132       C  0.65337570  0.49158815  0.23362245     0.22200
C1133       C  0.63253431  0.49558724  0.21394989    -0.34100
C1134       C  0.60997630  0.49282349  0.23016859     0.16300
O1135       O  0.58514830  0.48572713  0.27375865    -0.26100
C1136       C  0.57225672  0.49125441  0.24662671     0.06100
C1137       C  0.58672720  0.49574120  0.21872352    -0.31000
O1138       O  0.67628470  0.49390669  0.22386025    -0.22800
C1139       C  0.68918975  0.48850491  0.25103341    -0.02800
C1140       C  0.67469657  0.48270393  0.27846276    -0.17200
H1141       H  0.62760096  0.47754523  0.30919583     0.20800
H1142       H  0.63382274  0.50077014  0.18793226     0.19100
H1143       H  0.58094089  0.50070812  0.19378835     0.19100
H1144       H  0.68047656  0.47807157  0.30352182     0.15000
C1145       C  0.56112346  0.17395514  0.13100035     0.30400
C1146       C  0.54821609  0.17236496  0.16121108    -0.35900
C1147       C  0.53938328  0.19447586  0.17417046     0.16400
C1148       C  0.54317102  0.21669127  0.15868403     0.22200
C1149       C  0.55610082  0.21828305  0.12845917    -0.34100
C1150       C  0.56474001  0.19612799  0.11532245     0.16300
O1151       O  0.57077185  0.15554311  0.11433839    -0.26100
C1152       C  0.58050397  0.16598869  0.08741065     0.06100
C1153       C  0.57740496  0.19124618  0.08679497    -0.31000
O1154       O  0.53331320  0.23505586  0.17527226    -0.22800
C1155       C  0.52295960  0.22444452  0.20164952    -0.02800
C1156       C  0.52615423  0.19921035  0.20222125    -0.17200
H1157       H  0.54513989  0.15506933  0.17363898     0.20800
H1158       H  0.55908284  0.23556394  0.11595396     0.19100
H1159       H  0.58365462  0.20406974  0.06806376     0.19100
H1160       H  0.51973975  0.18626836  0.22070227     0.15000
C1161       C  0.45675979  0.19687133  0.32935270     0.30400
C1162       C  0.44770733  0.17396143  0.33915607    -0.35900
C1163       C  0.43470079  0.17345020  0.36929470     0.16400
C1164       C  0.43097045  0.19401566  0.38859515     0.22200
C1165       C  0.43994466  0.21693934  0.37873384    -0.34100
C1166       C  0.45282877  0.21748572  0.34847728     0.16300
O1167       O  0.46926225  0.20159482  0.30195839    -0.26100
C1168       C  0.47327516  0.22557444  0.30343315     0.06100
C1169       C  0.46345972  0.23642618  0.33183497    -0.31000
O1170       O  0.41852430  0.18927834  0.41602303    -0.22800
C1171       C  0.41409270  0.16539477  0.41413353    -0.02800
C1172       C  0.42374801  0.15458609  0.38561504    -0.17200
H1173       H  0.45055457  0.15769324  0.32428867     0.20800
H1174       H  0.43704011  0.23321034  0.39357200     0.19100
H1175       H  0.46401909  0.25548423  0.33906437     0.19100
H1176       H  0.42296046  0.13556130  0.37825960     0.15000
C1177       C  0.50296269  0.33876779  0.23391528     0.30400
C1178       C  0.50857650  0.35964917  0.21492019    -0.35900
C1179       C  0.50316591  0.38227141  0.22978650     0.16400
C1180       C  0.49324564  0.38418313  0.26135805     0.22200
C1181       C  0.48751764  0.36333567  0.28024131    -0.34100
C1182       C  0.49265390  0.34075475  0.26523640     0.16300
O1183       O  0.50636160  0.31579980  0.22488328    -0.26100
C1184       C  0.49797374  0.30290827  0.25068170     0.06100
C1185       C  0.48918219  0.31750916  0.27647353    -0.31000
O1186       O  0.49010809  0.40707593  0.27071952    -0.22800
C1187       C  0.49784122  0.42008322  0.24469753    -0.02800
C1188       C  0.50611691  0.40562433  0.21841767    -0.17200
H1189       H  0.51653355  0.35834512  0.19025015     0.20800
H1190       H  0.47957176  0.36463707  0.30492025     0.19100
H1191       H  0.48143414  0.31180568  0.30009464     0.19100
H1192       H  0.51359158  0.41148875  0.19471096     0.15000
loop_ 
_geom_bond_atom_site_label_1 
_geom_bond_atom_site_label_2 
_geom_bond_distance 
_geom_bond_site_symmetry_2 
_ccdc_geom_bond_type 
C1            N2   1.357       .  A
C1            N6   1.359       .  A
C1         C1168   1.471       .  S
N2            C3   1.359       .  A
C3            N4   1.360       .  A
C3         C1155   1.474       .  S
N4            C5   1.360       .  A
C5            N6   1.360       .  A
C5         C1184   1.476       .  S
O7           V15   1.901       .  S
O7           C17   1.264       .  A
O8           V15   1.904       .  S
O8           C18   1.265       .  A
O9           V15   1.904       .  S
O9           C19   1.265       .  A
O10          V15   1.904       .  S
O10          C20   1.265       .  A
O11          V16   1.899       .  S
O11          C20   1.264       .  A
O12          V16   1.899       .  S
O12          C19   1.264       .  A
O13          V16   1.906       .  S
O13          C18   1.265       .  A
O14          V16   1.909       .  S
O14          C17   1.266       .  A
V15          V16   2.085       .  T
C17        C1187   1.473       .  S
C18        C1123   1.474       .  S
C19        C1104   1.470       .  S
C20        C1136   1.469       .  S
C21          N22   1.355       .  A
C21          N26   1.359       .  A
C21        C1091   1.468       .  S
N22          C23   1.356       .  A
C23          N24   1.359       .  A
C23        C1075   1.468       .  S
N24          C25   1.359       .  A
C25          N26   1.360       .  A
C25        C1139   1.470       .  S
C27          N28   1.360       .  A
C27          N32   1.356       .  A
C27        C1059   1.470       .  S
N28          C29   1.359       .  A
C29          N30   1.360       .  A
C29        C1120   1.473       .  S
N30          C31   1.358       .  A
C31          N32   1.357       .  A
C31        C1040   1.469       .  S
C33          N34   1.356       .  A
C33          N38   1.358       .  A
C33        C1024   1.469       .  S
N34          C35   1.358       .  A
C35          N36   1.360       .  A
C35        C1107   1.470       .  S
N36          C37   1.361       .  A
C37          N38   1.358       .  A
C37        C1011   1.472       .  S
C39          N40   1.358       .  A
C39          N44   1.359       .  A
C39         C960   1.469       .  S
N40          C41   1.357       .  A
C41          N42   1.357       .  A
C41         C976   1.467       .  S
N42          C43   1.357       .  A
C43          N44   1.358       .  A
C43         C992   1.467       .  S
O45          V53   1.906       .  S
O45          C55   1.266       .  A
O46          V53   1.905       .  S
O46          C56   1.265       .  A
O47          V53   1.901       .  S
O47          C57   1.264       .  A
O48          V53   1.904       .  S
O48          C58   1.264       .  A
O49          V54   1.896       .  S
O49          C58   1.264       .  A
O50          V54   1.897       .  S
O50          C57   1.264       .  A
O51          V54   1.904       .  S
O51          C56   1.265       .  A
O52          V54   1.902       .  S
O52          C55   1.264       .  A
V53          V54   2.084       .  T
C55         C912   1.472       .  S
C56         C947   1.472       .  S
C57         C995   1.465       .  S
C58         C928   1.467       .  S
C59          N60   1.359       .  A
C59          N64   1.357       .  A
C59         C880   1.468       .  S
N60          C61   1.359       .  A
C61          N62   1.361       .  A
C61         C944   1.473       .  S
N62          C63   1.359       .  A
C63          N64   1.357       .  A
C63         C896   1.472       .  S
C65          N66   1.357       .  A
C65          N70   1.360       .  A
C65         C851   1.470       .  S
N66          C67   1.358       .  A
C67          N68   1.357       .  A
C67         C864   1.469       .  S
N68          C69   1.359       .  A
C69          N70   1.359       .  A
C69         C931   1.469       .  S
C71          N72   1.359       .  A
C71          N76   1.358       .  A
C71         C819   1.472       .  S
N72          C73   1.362       .  A
C73          N74   1.360       .  A
C73         C915   1.473       .  S
N74          C75   1.359       .  A
C75          N76   1.356       .  A
C75         C835   1.471       .  S
C77          N78   1.359   1_655  A
C77          N82   1.359       .  A
C77         C784   1.472       .  S
N78          C79   1.357       .  A
C79          N80   1.359       .  A
C79         C771   1.472       .  S
N80          C81   1.359   1_455  A
C81          N82   1.359       .  A
C81         C800   1.472       .  S
O83          V91   1.903       .  S
O83          C93   1.264       .  A
O84          V91   1.904   1_545  S
O84          C94   1.265       .  A
O85          V91   1.900   1_455  S
O85          C95   1.264       .  A
O86          V91   1.897       .  S
O86          C96   1.264       .  A
O87          V92   1.903       .  S
O87          C96   1.264       .  A
O88          V92   1.902   1_455  S
O88          C95   1.265       .  A
O89          V92   1.905   1_445  S
O89          C94   1.265   1_455  A
O90          V92   1.904       .  S
O90          C93   1.265       .  A
V91          V92   2.083       .  T
C93         C803   1.471       .  S
C94         C736   1.472   1_655  S
C95         C752   1.468       .  S
C96         C720   1.466       .  S
C97          N98   1.356       .  A
C97         N102   1.358       .  A
C97         C707   1.466       .  S
N98          C99   1.358   1_565  A
C99         N100   1.357       .  A
C99         C688   1.468       .  S
N100        C101   1.359   1_545  A
C101        N102   1.357       .  A
C101        C755   1.467       .  S
C103        N104   1.356       .  A
C103        N108   1.360       .  A
C103        C672   1.469       .  S
N104        C105   1.357   1_455  A
C105        N106   1.359       .  A
C105        C656   1.467       .  S
N106        C107   1.360   1_655  A
C107        N108   1.359       .  A
C107        C739   1.473       .  S
C109        N110   1.357       .  A
C109        N114   1.356   1_545  A
C109        C640   1.468       .  S
N110        C111   1.359   1_545  A
C111        N112   1.359       .  A
C111        C723   1.468       .  S
N112        C113   1.358       .  A
C113        N114   1.356       .  A
C113        C627   1.467       .  S
C115        N116   1.358       .  A
C115        N120   1.357       .  A
C115        C576   1.468       .  S
N116        C117   1.360       .  A
C117        N118   1.356   1_655  A
C117        C611   1.466   1_655  S
N118        C119   1.357       .  A
C119        N120   1.356   1_455  A
C119        C595   1.465       .  S
O121        V129   1.897   1_455  S
O121        C131   1.263       .  A
O122        V129   1.898       .  S
O122        C132   1.263       .  A
O123        V129   1.905   1_455  S
O123        C133   1.265   1_455  A
O124        V129   1.902   1_545  S
O124        C134   1.265       .  A
O125        V130   1.900   1_445  S
O125        C134   1.264   1_455  A
O126        V130   1.902       .  S
O126        C133   1.265       .  A
O127        V130   1.902       .  S
O127        C132   1.265       .  A
O128        V130   1.903   1_455  S
O128        C131   1.266       .  A
V129        V130   2.085       .  T
C131        C528   1.468       .  S
C132        C563   1.466       .  S
C133        C544   1.472       .  S
C134        C608   1.468       .  S
C135        N136   1.359       .  A
C135        N140   1.357       .  A
C135        C499   1.467       .  S
N136        C137   1.358   1_565  A
C137        N138   1.357       .  A
C137        C515   1.468       .  S
N138        C139   1.356   1_545  A
C139        N140   1.358       .  A
C139        C560   1.466       .  S
C141        N142   1.358       .  A
C141        N146   1.361       .  A
C141        C464   1.474       .  S
N142        C143   1.358   1_455  A
C143        N144   1.359       .  A
C143        C480   1.469       .  S
N144        C145   1.358   1_655  A
C145        N146   1.361       .  A
C145        C547   1.474       .  S
C147        N148   1.356   1_545  A
C147        N152   1.358       .  A
C147        C435   1.470       .  S
N148        C149   1.357       .  A
C149        N150   1.358       .  A
C149        C451   1.472       .  S
N150        C151   1.361       .  A
C151        N152   1.360   1_565  A
C151        C531   1.471       .  S
N153        C158   1.355       .  A
N153        C157   1.351       .  A
N153        H185   1.039       .  S
N154        C161   1.350   1_556  A
N154        C162   1.353       .  A
N155        C160   1.351       .  A
N155        C159   1.354       .  A
N155        H186   1.038       .  S
N156        C163   1.352       .  A
N156        C164   1.351   1_554  A
C157        C165   1.388       .  A
C157        C173   1.414       .  A
C158        C174   1.414       .  A
C158        C166   1.386       .  A
C159        C167   1.387       .  A
C159        C176   1.414       .  A
C160        C175   1.411       .  A
C160        C168   1.386       .  A
C161        C173   1.412       .  A
C161        C169   1.387       .  A
C162        C176   1.412       .  A
C162        C170   1.386       .  A
C163        C171   1.386       .  A
C163        C174   1.411       .  A
C164        C172   1.386       .  A
C164        C175   1.410       .  A
C165        C166   1.375       .  A
C165        H177   1.082       .  S
C166        H178   1.082       .  S
C167        C168   1.373       .  A
C167        H179   1.082       .  S
C168        H180   1.082       .  S
C169        C170   1.372   1_554  A
C169        H181   1.082       .  S
C170        H182   1.082       .  S
C171        C172   1.371   1_554  A
C171        H183   1.082       .  S
C172        H184   1.082       .  S
C173        C592   1.476       .  S
C174       C1008   1.487       .  S
C175        C883   1.475       .  S
C176        C675   1.485       .  S
N187        C192   1.354       .  A
N187        C191   1.355       .  A
N187        H219   1.038       .  S
N188        C195   1.353       .  A
N188        C196   1.352   1_554  A
N189        C194   1.354       .  A
N189        C193   1.353       .  A
N189        H220   1.038       .  S
N190        C197   1.352       .  A
N190        C198   1.353   1_554  A
C191        C199   1.386       .  A
C191        C207   1.416       .  A
C192        C208   1.417       .  A
C192        C200   1.387       .  A
C193        C201   1.387       .  A
C193        C210   1.415       .  A
C194        C209   1.414       .  A
C194        C202   1.387       .  A
C195        C207   1.415       .  A
C195        C203   1.386       .  A
C196        C210   1.413       .  A
C196        C204   1.386       .  A
C197        C205   1.387       .  A
C197        C208   1.414       .  A
C198        C206   1.386       .  A
C198        C209   1.413       .  A
C199        C200   1.375       .  A
C199        H211   1.082       .  S
C200        H212   1.082       .  S
C201        C202   1.374       .  A
C201        H213   1.082       .  S
C202        H214   1.082       .  S
C203        C204   1.371   1_554  A
C203        H215   1.082       .  S
C204        H216   1.082       .  S
C205        C206   1.371   1_554  A
C205        H217   1.082       .  S
C206        H218   1.082       .  S
C207       C1152   1.488       .  S
C208        C512   1.484       .  S
C209        C643   1.484       .  S
C210        C848   1.482       .  S
N221        C226   1.355       .  A
N221        C225   1.353       .  A
N221        H253   1.036       .  S
N222        C229   1.352       .  A
N222        C230   1.353   1_554  A
N223        C228   1.353       .  A
N223        C227   1.354       .  A
N223        H254   1.034       .  S
N224        C231   1.353       .  A
N224        C232   1.352   1_554  A
C225        C233   1.387       .  A
C225        C241   1.416       .  A
C226        C242   1.417       .  A
C226        C234   1.387       .  A
C227        C235   1.386       .  A
C227        C244   1.414       .  A
C228        C243   1.417       .  A
C228        C236   1.388       .  A
C229        C241   1.413       .  A
C229        C237   1.387       .  A
C230        C244   1.412       .  A
C230        C238   1.385       .  A
C231        C239   1.386       .  A
C231        C242   1.412       .  A
C232        C240   1.387       .  A
C232        C243   1.415       .  A
C233        C234   1.373       .  A
C233        H245   1.082       .  S
C234        H246   1.082       .  S
C235        C236   1.375       .  A
C235        H247   1.082       .  S
C236        H248   1.082       .  S
C237        C238   1.370   1_554  A
C237        H249   1.082       .  S
C238        H250   1.082       .  S
C239        C240   1.371   1_554  A
C239        H251   1.082       .  S
C240        H252   1.082       .  S
C241        C483   1.482       .  S
C242       C1072   1.486       .  S
C243        C816   1.482       .  S
C244        C787   1.481       .  S
N255        C260   1.356       .  A
N255        C259   1.353       .  A
N255        H287   1.035       .  S
N256        C263   1.351   1_556  A
N256        C264   1.353       .  A
N257        C262   1.351       .  A
N257        C261   1.354       .  A
N257        H288   1.038       .  S
N258        C265   1.353   1_556  A
N258        C266   1.351       .  A
C259        C267   1.388       .  A
C259        C275   1.417       .  A
C260        C276   1.418       .  A
C260        C268   1.387       .  A
C261        C269   1.387       .  A
C261        C278   1.414       .  A
C262        C277   1.413       .  A
C262        C270   1.387       .  A
C263        C275   1.415       .  A
C263        C271   1.388       .  A
C264        C278   1.411       .  A
C264        C272   1.385       .  A
C265        C273   1.386       .  A
C265        C276   1.414       .  A
C266        C274   1.387       .  A
C266        C277   1.412       .  A
C267        C268   1.375       .  A
C267        H279   1.082       .  S
C268        H280   1.082       .  S
C269        C270   1.373       .  A
C269        H281   1.082       .  S
C270        H282   1.082       .  S
C271        C272   1.370   1_554  A
C271        H283   1.082       .  S
C272        H284   1.082       .  S
C273        C274   1.370   1_554  A
C273        H285   1.082       .  S
C274        H286   1.082       .  S
C275       C1043   1.479       .  S
C276        C448   1.488       .  S
C277        C704   1.477       .  S
C278        C963   1.485       .  S
N289        C294   1.355       .  A
N289        C293   1.354       .  A
N289        H321   1.039       .  S
N290        C297   1.353       .  A
N290        C298   1.354       .  A
N291        C296   1.353       .  A
N291        C295   1.354       .  A
N291        H322   1.038       .  S
N292        C299   1.353       .  A
N292        C300   1.352       .  A
C293        C301   1.388       .  A
C293        C309   1.417       .  A
C294        C310   1.415       .  A
C294        C302   1.386       .  A
C295        C303   1.387       .  A
C295        C312   1.416       .  A
C296        C311   1.414       .  A
C296        C304   1.387       .  A
C297        C309   1.415       .  A
C297        C305   1.387       .  A
C298        C312   1.414       .  A
C298        C306   1.386       .  A
C299        C307   1.386       .  A
C299        C310   1.414       .  A
C300        C308   1.386       .  A
C300        C311   1.414       .  A
C301        C302   1.374       .  A
C301        H313   1.082       .  S
C302        H314   1.082       .  S
C303        C304   1.375       .  A
C303        H315   1.082       .  S
C304        H316   1.082       .  S
C305        C306   1.372       .  A
C305        H317   1.082       .  S
C306        H318   1.082       .  S
C307        C308   1.371       .  A
C307        H319   1.082       .  S
C308        H320   1.082       .  S
C309        C768   1.488       .  S
C310        C899   1.489       .  S
C311       C1027   1.482       .  S
C312        C467   1.487       .  S
N323        C328   1.354       .  A
N323        C327   1.354       .  A
N323        H355   1.036       .  S
N324        C331   1.351       .  A
N324        C332   1.352       .  A
N325        C330   1.352       .  A
N325        C329   1.353       .  A
N325        H356   1.038       .  S
N326        C333   1.352       .  A
N326        C334   1.352       .  A
C327        C335   1.388       .  A
C327        C343   1.417       .  A
C328        C344   1.417       .  A
C328        C336   1.387       .  A
C329        C337   1.386       .  A
C329        C346   1.411       .  A
C330        C345   1.414       .  A
C330        C338   1.388       .  A
C331        C343   1.413       .  A
C331        C339   1.387       .  A
C332        C346   1.412       .  A
C332        C340   1.386       .  A
C333        C341   1.387       .  A
C333        C344   1.414       .  A
C334        C342   1.386       .  A
C334        C345   1.412       .  A
C335        C336   1.375       .  A
C335        H347   1.082       .  S
C336        H348   1.082       .  S
C337        C338   1.375       .  A
C337        H349   1.082       .  S
C338        H350   1.082       .  S
C339        C340   1.371       .  A
C339        H351   1.082       .  S
C340        H352   1.082       .  S
C341        C342   1.371       .  A
C341        H353   1.082       .  S
C342        H354   1.082       .  S
C343        C691   1.480       .  S
C344        C867   1.484       .  S
C345       C1171   1.482       .  S
C346        C432   1.480       .  S
N357        C362   1.353       .  A
N357        C361   1.355       .  A
N357        H389   1.037       .  S
N358        C365   1.353       .  A
N358        C366   1.351       .  A
N359        C364   1.355       .  A
N359        C363   1.353       .  A
N359        H390   1.035       .  S
N360        C367   1.352       .  A
N360        C368   1.353       .  A
C361        C369   1.386       .  A
C361        C377   1.416       .  A
C362        C378   1.417       .  A
C362        C370   1.388       .  A
C363        C371   1.387       .  A
C363        C380   1.416       .  A
C364        C379   1.418       .  A
C364        C372   1.388       .  A
C365        C377   1.413       .  A
C365        C373   1.386       .  A
C366        C380   1.413       .  A
C366        C374   1.387       .  A
C367        C375   1.388       .  A
C367        C378   1.415       .  A
C368        C376   1.386       .  A
C368        C379   1.413       .  A
C369        C370   1.374       .  A
C369        H381   1.082       .  S
C370        H382   1.082       .  S
C371        C372   1.374       .  A
C371        H383   1.082       .  S
C372        H384   1.082       .  S
C373        C374   1.369       .  A
C373        H385   1.082       .  S
C374        H386   1.082       .  S
C375        C376   1.369       .  A
C375        H387   1.082       .  S
C376        H388   1.082       .  S
C377        C832   1.486       .  S
C378        C659   1.481       .  S
C379        C579   1.486       .  S
C380       C1088   1.478       .  S
N391        C396   1.353       .  A
N391        C395   1.352       .  A
N391        H423   1.039       .  S
N392        C399   1.351       .  A
N392        C400   1.352       .  A
N393        C398   1.353       .  A
N393        C397   1.354       .  A
N393        H424   1.040       .  S
N394        C401   1.350       .  A
N394        C402   1.351       .  A
C395        C403   1.387       .  A
C395        C411   1.414       .  A
C396        C412   1.412       .  A
C396        C404   1.386       .  A
C397        C405   1.386       .  A
C397        C414   1.414       .  A
C398        C413   1.413       .  A
C398        C406   1.387       .  A
C399        C411   1.411       .  A
C399        C407   1.387       .  A
C400        C414   1.411       .  A
C400        C408   1.386       .  A
C401        C409   1.386       .  A
C401        C412   1.410       .  A
C402        C410   1.387       .  A
C402        C413   1.411       .  A
C403        C404   1.374       .  A
C403        H415   1.082       .  S
C404        H416   1.082       .  S
C405        C406   1.374       .  A
C405        H417   1.082       .  S
C406        H418   1.082       .  S
C407        C408   1.372       .  A
C407        H419   1.082       .  S
C408        H420   1.082       .  S
C409        C410   1.371       .  A
C409        H421   1.082       .  S
C410        H422   1.082       .  S
C411        C979   1.480       .  S
C412        C624   1.478       .  S
C413        C496   1.483       .  S
C414       C1056   1.484       .  S
C425        C430   1.381       .  A
C425        C426   1.403       .  A
C425        O431   1.319       .  A
C426        C427   1.403       .  A
C426        H437   1.082       .  S
C427        C436   1.361       .  A
C427        C428   1.381       .  A
C428        C429   1.401       .  A
C428        O434   1.318       .  A
C429        C430   1.401       .  A
C429        H438   1.082       .  S
C430        C433   1.359       .  A
O431        C432   1.331       .  A
C432        C433   1.390       .  A
C433        H439   1.082       .  S
O434        C435   1.330       .  A
C435        C436   1.393       .  A
C436        H440   1.083       .  S
C441        C446   1.381       .  A
C441        C442   1.401       .  A
C441        O447   1.318       .  A
C442        C443   1.400       .  A
C442        H453   1.082       .  S
C443        C452   1.358       .  A
C443        C444   1.380       .  A
C444        C445   1.406       .  A
C444        O450   1.322       .  A
C445        C446   1.406       .  A
C445        H454   1.082       .  S
C446        C449   1.364       .  A
O447        C448   1.330       .  A
C448        C449   1.395       .  A
C449        H455   1.082       .  S
O450        C451   1.333       .  A
C451        C452   1.390       .  A
C452        H456   1.083       .  S
C457        C462   1.380       .  A
C457        C458   1.405       .  A
C457        O463   1.320       .  A
C458        C459   1.404       .  A
C458        H469   1.082       .  S
C459        C468   1.362       .  A
C459        C460   1.380       .  A
C460        C461   1.404       .  A
C460        O466   1.320       .  A
C461        C462   1.403       .  A
C461        H470   1.082       .  S
C462        C465   1.363       .  A
O463        C464   1.332       .  A
C464        C465   1.391       .  A
C465        H471   1.082       .  S
O466        C467   1.332       .  A
C467        C468   1.392       .  A
C468        H472   1.082       .  S
C473        C478   1.381       .  A
C473        C474   1.402       .  A
C473        O479   1.318       .  A
C474        C475   1.401       .  A
C474        H485   1.082       .  S
C475        C484   1.360       .  A
C475        C476   1.380       .  A
C476        C477   1.402       .  A
C476        O482   1.317       .  A
C477        C478   1.402       .  A
C477        H486   1.082       .  S
C478        C481   1.361       .  A
O479        C480   1.330       .  A
C480        C481   1.391       .  A
C481        H487   1.082       .  S
O482        C483   1.330       .  A
C483        C484   1.391       .  A
C484        H488   1.082       .  S
C489        C494   1.380       .  A
C489        C490   1.402       .  A
C489        O495   1.317       .  A
C490        C491   1.401       .  A
C490        H501   1.082       .  S
C491        C500   1.360       .  A
C491        C492   1.381       .  A
C492        C493   1.403       .  A
C492        O498   1.318       .  A
C493        C494   1.402       .  A
C493        H502   1.082       .  S
C494        C497   1.360       .  A
O495        C496   1.330       .  A
C496        C497   1.392       .  A
C497        H503   1.082       .  S
O498        C499   1.330       .  A
C499        C500   1.391       .  A
C500        H504   1.082       .  S
C505        C510   1.380       .  A
C505        C506   1.403       .  A
C505        O511   1.318       .  A
C506        C507   1.402       .  A
C506        H517   1.082       .  S
C507        C516   1.360       .  A
C507        C508   1.381       .  A
C508        C509   1.402       .  A
C508        O514   1.318       .  A
C509        C510   1.401       .  A
C509        H518   1.082       .  S
C510        C513   1.360       .  A
O511        C512   1.331       .  A
C512        C513   1.391       .  A
C513        H519   1.082       .  S
O514        C515   1.330       .  A
C515        C516   1.391       .  A
C516        H520   1.083       .  S
C521        C526   1.380       .  A
C521        C522   1.405       .  A
C521        O527   1.319       .  A
C522        C523   1.404       .  A
C522        H533   1.082   1_565  S
C523        C532   1.363       .  A
C523        C524   1.381       .  A
C524        C525   1.402       .  A
C524        O530   1.318       .  A
C525        C526   1.401       .  A
C525        H534   1.082       .  S
C526        C529   1.361       .  A
O527        C528   1.331       .  A
C528        C529   1.390       .  A
C529        H535   1.082       .  S
O530        C531   1.330       .  A
C531        C532   1.393       .  A
C532        H536   1.083   1_565  S
C537        C542   1.380   1_455  A
C537        C538   1.404       .  A
C537        O543   1.320       .  A
C538        C539   1.403       .  A
C538        H549   1.082       .  S
C539        C548   1.363       .  A
C539        C540   1.380   1_455  A
C540        C541   1.405       .  A
C540        O546   1.320       .  A
C541        C542   1.405       .  A
C541        H550   1.082       .  S
C542        C545   1.364       .  A
O543        C544   1.331   1_455  A
C544        C545   1.392       .  A
C545        H551   1.082       .  S
O546        C547   1.332   1_655  A
C547        C548   1.392       .  A
C548        H552   1.082       .  S
C553        C558   1.381       .  A
C553        C554   1.402       .  A
C553        O559   1.317       .  A
C554        C555   1.401       .  A
C554        H565   1.082   1_565  S
C555        C564   1.361       .  A
C555        C556   1.381       .  A
C556        C557   1.403       .  A
C556        O562   1.318       .  A
C557        C558   1.402       .  A
C557        H566   1.082       .  S
C558        C561   1.361       .  A
O559        C560   1.330       .  A
C560        C561   1.391       .  A
C561        H567   1.083       .  S
O562        C563   1.330       .  A
C563        C564   1.390       .  A
C564        H568   1.082   1_565  S
C569        C574   1.381       .  A
C569        C570   1.400       .  A
C569        O575   1.316       .  A
C570        C571   1.399       .  A
C570        H581   1.082       .  S
C571        C580   1.359       .  A
C571        C572   1.380       .  A
C572        C573   1.406       .  A
C572        O578   1.320       .  A
C573        C574   1.404       .  A
C573        H582   1.082       .  S
C574        C577   1.364       .  A
O575        C576   1.329       .  A
C576        C577   1.393       .  A
C577        H583   1.082       .  S
O578        C579   1.333       .  A
C579        C580   1.390       .  A
C580        H584   1.082       .  S
C585        C590   1.381       .  A
C585        C586   1.399       .  A
C585        O591   1.315       .  A
C586        C587   1.399       .  A
C586        H597   1.082       .  S
C587        C596   1.358       .  A
C587        C588   1.381       .  A
C588        C589   1.402       .  A
C588        O594   1.317       .  A
C589        C590   1.401       .  A
C589        H598   1.082       .  S
C590        C593   1.360       .  A
O591        C592   1.328       .  A
C592        C593   1.390       .  A
C593        H599   1.082       .  S
O594        C595   1.330       .  A
C595        C596   1.389       .  A
C596        H600   1.083       .  S
C601        C606   1.381   1_655  A
C601        C602   1.401       .  A
C601        O607   1.317       .  A
C602        C603   1.400       .  A
C602        H613   1.082       .  S
C603        C612   1.359       .  A
C603        C604   1.381   1_655  A
C604        C605   1.404       .  A
C604        O610   1.319       .  A
C605        C606   1.404       .  A
C605        H614   1.082       .  S
C606        C609   1.363       .  A
O607        C608   1.329       .  A
C608        C609   1.392   1_655  A
C609        H615   1.082       .  S
O610        C611   1.331       .  A
C611        C612   1.389   1_455  A
C612        H616   1.082       .  S
C617        C622   1.381       .  A
C617        C618   1.400       .  A
C617        O623   1.316       .  A
C618        C619   1.400       .  A
C618        H629   1.082       .  S
C619        C628   1.357       .  A
C619        C620   1.381       .  A
C620        C621   1.403       .  A
C620        O626   1.319       .  A
C621        C622   1.403       .  A
C621        H630   1.082       .  S
C622        C625   1.360       .  A
O623        C624   1.329       .  A
C624        C625   1.391       .  A
C625        H631   1.082       .  S
O626        C627   1.331       .  A
C627        C628   1.390       .  A
C628        H632   1.083       .  S
C633        C638   1.381       .  A
C633        C634   1.403       .  A
C633        O639   1.319       .  A
C634        C635   1.403       .  A
C634        H645   1.082       .  S
C635        C644   1.361       .  A
C635        C636   1.381       .  A
C636        C637   1.402       .  A
C636        O642   1.318       .  A
C637        C638   1.401       .  A
C637        H646   1.082       .  S
C638        C641   1.359       .  A
O639        C640   1.330       .  A
C640        C641   1.391       .  A
C641        H647   1.083       .  S
O642        C643   1.330       .  A
C643        C644   1.392       .  A
C644        H648   1.082       .  S
C649        C654   1.381       .  A
C649        C650   1.401       .  A
C649        O655   1.316       .  A
C650        C651   1.400       .  A
C650        H661   1.082       .  S
C651        C660   1.359       .  A
C651        C652   1.380       .  A
C652        C653   1.403       .  A
C652        O658   1.317       .  A
C653        C654   1.402       .  A
C653        H662   1.082       .  S
C654        C657   1.362       .  A
O655        C656   1.330       .  A
C656        C657   1.391       .  A
C657        H663   1.082       .  S
O658        C659   1.331       .  A
C659        C660   1.391       .  A
C660        H664   1.082       .  S
C665        C670   1.380       .  A
C665        C666   1.405       .  A
C665        O671   1.320       .  A
C666        C667   1.404       .  A
C666        H677   1.082       .  S
C667        C676   1.362       .  A
C667        C668   1.381       .  A
C668        C669   1.401       .  A
C668        O674   1.318       .  A
C669        C670   1.400       .  A
C669        H678   1.082       .  S
C670        C673   1.359       .  A
O671        C672   1.332       .  A
C672        C673   1.389       .  A
C673        H679   1.082       .  S
O674        C675   1.330       .  A
C675        C676   1.393       .  A
C676        H680   1.082       .  S
C681        C686   1.380       .  A
C681        C682   1.405       .  A
C681        O687   1.319       .  A
C682        C683   1.404       .  A
C682        H693   1.082       .  S
C683        C692   1.362       .  A
C683        C684   1.381       .  A
C684        C685   1.399       .  A
C684        O690   1.316       .  A
C685        C686   1.399       .  A
C685        H694   1.082       .  S
C686        C689   1.358       .  A
O687        C688   1.332       .  A
C688        C689   1.389       .  A
C689        H695   1.083       .  S
O690        C691   1.328       .  A
C691        C692   1.393       .  A
C692        H696   1.082       .  S
C697        C702   1.381       .  A
C697        C698   1.400       .  A
C697        O703   1.316       .  A
C698        C699   1.400       .  A
C698        H709   1.082       .  S
C699        C708   1.358       .  A
C699        C700   1.381       .  A
C700        C701   1.402       .  A
C700        O706   1.318       .  A
C701        C702   1.401       .  A
C701        H710   1.082       .  S
C702        C705   1.359       .  A
O703        C704   1.329       .  A
C704        C705   1.390       .  A
C705        H711   1.082       .  S
O706        C707   1.331       .  A
C707        C708   1.390       .  A
C708        H712   1.082       .  S
C713        C718   1.381       .  A
C713        C714   1.403   1_565  A
C713        O719   1.319   1_565  A
C714        C715   1.402   1_545  A
C714        H725   1.082       .  S
C715        C724   1.360   1_565  A
C715        C716   1.381       .  A
C716        C717   1.402       .  A
C716        O722   1.318       .  A
C717        C718   1.401       .  A
C717        H726   1.082       .  S
C718        C721   1.359       .  A
O719        C720   1.330   1_545  A
C720        C721   1.390       .  A
C721        H727   1.083       .  S
O722        C723   1.330       .  A
C723        C724   1.391   1_565  A
C724        H728   1.082       .  S
C729        C734   1.380   1_655  A
C729        C730   1.403       .  A
C729        O735   1.319       .  A
C730        C731   1.402       .  A
C730        H741   1.082       .  S
C731        C740   1.361       .  A
C731        C732   1.380   1_655  A
C732        C733   1.406       .  A
C732        O738   1.321       .  A
C733        C734   1.406       .  A
C733        H742   1.082       .  S
C734        C737   1.365       .  A
O735        C736   1.330   1_655  A
C736        C737   1.393       .  A
C737        H743   1.082       .  S
O738        C739   1.332       .  A
C739        C740   1.391   1_455  A
C740        H744   1.083       .  S
C745        C750   1.381       .  A
C745        C746   1.403       .  A
C745        O751   1.319       .  A
C746        C747   1.402       .  A
C746        H757   1.082   1_565  S
C747        C756   1.360       .  A
C747        C748   1.381       .  A
C748        C749   1.403       .  A
C748        O754   1.318       .  A
C749        C750   1.402       .  A
C749        H758   1.082       .  S
C750        C753   1.361       .  A
O751        C752   1.331       .  A
C752        C753   1.391       .  A
C753        H759   1.082       .  S
O754        C755   1.331       .  A
C755        C756   1.390       .  A
C756        H760   1.082   1_565  S
C761        C766   1.380       .  A
C761        C762   1.402       .  A
C761        O767   1.318       .  A
C762        C763   1.402       .  A
C762        H773   1.082       .  S
C763        C772   1.361       .  A
C763        C764   1.380       .  A
C764        C765   1.404       .  A
C764        O770   1.320       .  A
C765        C766   1.403       .  A
C765        H774   1.082       .  S
C766        C769   1.362       .  A
O767        C768   1.331       .  A
C768        C769   1.394       .  A
C769        H775   1.082       .  S
O770        C771   1.332       .  A
C771        C772   1.391       .  A
C772        H776   1.082       .  S
C777        C782   1.380       .  A
C777        C778   1.405       .  A
C777        O783   1.320       .  A
C778        C779   1.404       .  A
C778        H789   1.082       .  S
C779        C788   1.363       .  A
C779        C780   1.381       .  A
C780        C781   1.402       .  A
C780        O786   1.318       .  A
C781        C782   1.401       .  A
C781        H790   1.082       .  S
C782        C785   1.360       .  A
O783        C784   1.332       .  A
C784        C785   1.391       .  A
C785        H791   1.083       .  S
O786        C787   1.329       .  A
C787        C788   1.392       .  A
C788        H792   1.082       .  S
C793        C798   1.380       .  A
C793        C794   1.404       .  A
C793        O799   1.319       .  A
C794        C795   1.403       .  A
C794        H805   1.082       .  S
C795        C804   1.363       .  A
C795        C796   1.380       .  A
C796        C797   1.404   1_655  A
C796        O802   1.320   1_655  A
C797        C798   1.403   1_455  A
C797        H806   1.082       .  S
C798        C801   1.362   1_655  A
O799        C800   1.331       .  A
C800        C801   1.392   1_655  A
C801        H807   1.083       .  S
O802        C803   1.331   1_455  A
C803        C804   1.391       .  A
C804        H808   1.082       .  S
C809        C814   1.381       .  A
C809        C810   1.402       .  A
C809        O815   1.318       .  A
C810        C811   1.402       .  A
C810        H821   1.082       .  S
C811        C820   1.359       .  A
C811        C812   1.380       .  A
C812        C813   1.404       .  A
C812        O818   1.321       .  A
C813        C814   1.403       .  A
C813        H822   1.082       .  S
C814        C817   1.361       .  A
O815        C816   1.330       .  A
C816        C817   1.392       .  A
C817        H823   1.082       .  S
O818        C819   1.332       .  A
C819        C820   1.391       .  A
C820        H824   1.083       .  S
C825        C830   1.380       .  A
C825        C826   1.405       .  A
C825        O831   1.319       .  A
C826        C827   1.404       .  A
C826        H837   1.082       .  S
C827        C836   1.364       .  A
C827        C828   1.380       .  A
C828        C829   1.403       .  A
C828        O834   1.318       .  A
C829        C830   1.402       .  A
C829        H838   1.082       .  S
C830        C833   1.361       .  A
O831        C832   1.332       .  A
C832        C833   1.390       .  A
C833        H839   1.082       .  S
O834        C835   1.331       .  A
C835        C836   1.392       .  A
C836        H840   1.082       .  S
C841        C846   1.381       .  A
C841        C842   1.403       .  A
C841        O847   1.318       .  A
C842        C843   1.402       .  A
C842        H853   1.082       .  S
C843        C852   1.362       .  A
C843        C844   1.380       .  A
C844        C845   1.403       .  A
C844        O850   1.318       .  A
C845        C846   1.402       .  A
C845        H854   1.082       .  S
C846        C849   1.361       .  A
O847        C848   1.331       .  A
C848        C849   1.391       .  A
C849        H855   1.082       .  S
O850        C851   1.331       .  A
C851        C852   1.391       .  A
C852        H856   1.082       .  S
C857        C862   1.380       .  A
C857        C858   1.403       .  A
C857        O863   1.319       .  A
C858        C859   1.403       .  A
C858        H869   1.082       .  S
C859        C868   1.361       .  A
C859        C860   1.381       .  A
C860        C861   1.402       .  A
C860        O866   1.319       .  A
C861        C862   1.401       .  A
C861        H870   1.082       .  S
C862        C865   1.360       .  A
O863        C864   1.331       .  A
C864        C865   1.390       .  A
C865        H871   1.082       .  S
O866        C867   1.330       .  A
C867        C868   1.392       .  A
C868        H872   1.082       .  S
C873        C878   1.381       .  A
C873        C874   1.400       .  A
C873        O879   1.316       .  A
C874        C875   1.399       .  A
C874        H885   1.082       .  S
C875        C884   1.358       .  A
C875        C876   1.381       .  A
C876        C877   1.403       .  A
C876        O882   1.318       .  A
C877        C878   1.403       .  A
C877        H886   1.082       .  S
C878        C881   1.362       .  A
O879        C880   1.329       .  A
C880        C881   1.392       .  A
C881        H887   1.082       .  S
O882        C883   1.330       .  A
C883        C884   1.388       .  A
C884        H888   1.082       .  S
C889        C894   1.380       .  A
C889        C890   1.403       .  A
C889        O895   1.319       .  A
C890        C891   1.402       .  A
C890        H901   1.082       .  S
C891        C900   1.361       .  A
C891        C892   1.380       .  A
C892        C893   1.405       .  A
C892        O898   1.320       .  A
C893        C894   1.404       .  A
C893        H902   1.082       .  S
C894        C897   1.363       .  A
O895        C896   1.330       .  A
C896        C897   1.393       .  A
C897        H903   1.083       .  S
O898        C899   1.333       .  A
C899        C900   1.392       .  A
C900        H904   1.082       .  S
C905        C910   1.380       .  A
C905        C906   1.404       .  A
C905        O911   1.319       .  A
C906        C907   1.403       .  A
C906        H917   1.082       .  S
C907        C916   1.363       .  A
C907        C908   1.380       .  A
C908        C909   1.405       .  A
C908        O914   1.320       .  A
C909        C910   1.404       .  A
C909        H918   1.082       .  S
C910        C913   1.365       .  A
O911        C912   1.331       .  A
C912        C913   1.393       .  A
C913        H919   1.082       .  S
O914        C915   1.332       .  A
C915        C916   1.392       .  A
C916        H920   1.082       .  S
C921        C926   1.381       .  A
C921        C922   1.403       .  A
C921        O927   1.320       .  A
C922        C923   1.403       .  A
C922        H933   1.082       .  S
C923        C932   1.361       .  A
C923        C924   1.381       .  A
C924        C925   1.402       .  A
C924        O930   1.319       .  A
C925        C926   1.401       .  A
C925        H934   1.082       .  S
C926        C929   1.359       .  A
O927        C928   1.331       .  A
C928        C929   1.390       .  A
C929        H935   1.082       .  S
O930        C931   1.330       .  A
C931        C932   1.392       .  A
C932        H936   1.082       .  S
C937        C942   1.380       .  A
C937        C938   1.405       .  A
C937        O943   1.320       .  A
C938        C939   1.404       .  A
C938        H949   1.082       .  S
C939        C948   1.364       .  A
C939        C940   1.380       .  A
C940        C941   1.404       .  A
C940        O946   1.320       .  A
C941        C942   1.403       .  A
C941        H950   1.082       .  S
C942        C945   1.362       .  A
O943        C944   1.332       .  A
C944        C945   1.392       .  A
C945        H951   1.082       .  S
O946        C947   1.331       .  A
C947        C948   1.392       .  A
C948        H952   1.082       .  S
C953        C958   1.381       .  A
C953        C954   1.401       .  A
C953        O959   1.317       .  A
C954        C955   1.400       .  A
C954        H965   1.082       .  S
C955        C964   1.359       .  A
C955        C956   1.380       .  A
C956        C957   1.405       .  A
C956        O962   1.320       .  A
C957        C958   1.404       .  A
C957        H966   1.082       .  S
C958        C961   1.364       .  A
O959        C960   1.329       .  A
C960        C961   1.393       .  A
C961        H967   1.082       .  S
O962        C963   1.332       .  A
C963        C964   1.390       .  A
C964        H968   1.082       .  S
C969        C974   1.381       .  A
C969        C970   1.403       .  A
C969        O975   1.318       .  A
C970        C971   1.402       .  A
C970        H981   1.082       .  S
C971        C980   1.360       .  A
C971        C972   1.381       .  A
C972        C973   1.401       .  A
C972        O978   1.317       .  A
C973        C974   1.400       .  A
C973        H982   1.082       .  S
C974        C977   1.359       .  A
O975        C976   1.331       .  A
C976        C977   1.390       .  A
C977        H983   1.083       .  S
O978        C979   1.330       .  A
C979        C980   1.391       .  A
C980        H984   1.082       .  S
C985        C990   1.381       .  A
C985        C986   1.401       .  A
C985        O991   1.317       .  A
C986        C987   1.400       .  A
C986        H997   1.082       .  S
C987        C996   1.359       .  A
C987        C988   1.381       .  A
C988        C989   1.403       .  A
C988        O994   1.319       .  A
C989        C990   1.403       .  A
C989        H998   1.082       .  S
C990        C993   1.361       .  A
O991        C992   1.329       .  A
C992        C993   1.392       .  A
C993        H999   1.083       .  S
O994        C995   1.331       .  A
C995        C996   1.389       .  A
C996       H1000   1.083       .  S
C1001      C1006   1.380       .  A
C1001      C1002   1.403       .  A
C1001      O1007   1.318       .  A
C1002      C1003   1.402       .  A
C1002      H1013   1.082       .  S
C1003      C1012   1.362       .  A
C1003      C1004   1.380       .  A
C1004      C1005   1.405       .  A
C1004      O1010   1.319       .  A
C1005      C1006   1.404       .  A
C1005      H1014   1.082       .  S
C1006      C1009   1.364       .  A
O1007      C1008   1.331       .  A
C1008      C1009   1.393       .  A
C1009      H1015   1.082       .  S
O1010      C1011   1.332       .  A
C1011      C1012   1.391       .  A
C1012      H1016   1.082       .  S
C1017      C1022   1.380       .  A
C1017      C1018   1.403       .  A
C1017      O1023   1.318       .  A
C1018      C1019   1.402       .  A
C1018      H1029   1.082       .  S
C1019      C1028   1.361       .  A
C1019      C1020   1.381       .  A
C1020      C1021   1.402       .  A
C1020      O1026   1.318       .  A
C1021      C1022   1.401       .  A
C1021      H1030   1.082       .  S
C1022      C1025   1.360       .  A
O1023      C1024   1.331       .  A
C1024      C1025   1.391       .  A
C1025      H1031   1.082       .  S
O1026      C1027   1.330       .  A
C1027      C1028   1.391       .  A
C1028      H1032   1.082       .  S
C1033      C1038   1.381       .  A
C1033      C1034   1.401       .  A
C1033      O1039   1.318       .  A
C1034      C1035   1.400       .  A
C1034      H1045   1.082       .  S
C1035      C1044   1.358       .  A
C1035      C1036   1.381       .  A
C1036      C1037   1.402       .  A
C1036      O1042   1.318       .  A
C1037      C1038   1.402       .  A
C1037      H1046   1.082       .  S
C1038      C1041   1.360       .  A
O1039      C1040   1.330       .  A
C1040      C1041   1.392       .  A
C1041      H1047   1.083       .  S
O1042      C1043   1.330       .  A
C1043      C1044   1.390       .  A
C1044      H1048   1.082       .  S
C1049      C1054   1.380       .  A
C1049      C1050   1.403       .  A
C1049      O1055   1.319       .  A
C1050      C1051   1.403       .  A
C1050      H1061   1.082       .  S
C1051      C1060   1.362       .  A
C1051      C1052   1.380       .  A
C1052      C1053   1.403       .  A
C1052      O1058   1.318       .  A
C1053      C1054   1.402       .  A
C1053      H1062   1.082       .  S
C1054      C1057   1.361       .  A
O1055      C1056   1.331       .  A
C1056      C1057   1.392       .  A
C1057      H1063   1.082       .  S
O1058      C1059   1.331       .  A
C1059      C1060   1.391       .  A
C1060      H1064   1.082       .  S
C1065      C1070   1.380       .  A
C1065      C1066   1.405       .  A
C1065      O1071   1.319       .  A
C1066      C1067   1.404       .  A
C1066      H1077   1.082       .  S
C1067      C1076   1.364       .  A
C1067      C1068   1.381       .  A
C1068      C1069   1.401       .  A
C1068      O1074   1.316       .  A
C1069      C1070   1.400       .  A
C1069      H1078   1.082       .  S
C1070      C1073   1.359       .  A
O1071      C1072   1.332       .  A
C1072      C1073   1.391       .  A
C1073      H1079   1.082       .  S
O1074      C1075   1.330       .  A
C1075      C1076   1.392       .  A
C1076      H1080   1.082       .  S
C1081      C1086   1.381       .  A
C1081      C1082   1.402       .  A
C1081      O1087   1.316       .  A
C1082      C1083   1.401       .  A
C1082      H1093   1.082       .  S
C1083      C1092   1.362       .  A
C1083      C1084   1.380       .  A
C1084      C1085   1.403       .  A
C1084      O1090   1.317       .  A
C1085      C1086   1.401       .  A
C1085      H1094   1.082       .  S
C1086      C1089   1.361       .  A
O1087      C1088   1.329       .  A
C1088      C1089   1.390       .  A
C1089      H1095   1.082       .  S
O1090      C1091   1.331       .  A
C1091      C1092   1.391       .  A
C1092      H1096   1.082       .  S
C1097      C1102   1.381       .  A
C1097      C1098   1.403       .  A
C1097      O1103   1.320       .  A
C1098      C1099   1.403       .  A
C1098      H1109   1.082       .  S
C1099      C1108   1.360       .  A
C1099      C1100   1.381       .  A
C1100      C1101   1.403       .  A
C1100      O1106   1.320       .  A
C1101      C1102   1.403       .  A
C1101      H1110   1.082       .  S
C1102      C1105   1.361       .  A
O1103      C1104   1.331       .  A
C1104      C1105   1.391       .  A
C1105      H1111   1.082       .  S
O1106      C1107   1.331       .  A
C1107      C1108   1.391       .  A
C1108      H1112   1.083       .  S
C1113      C1118   1.380       .  A
C1113      C1114   1.405       .  A
C1113      O1119   1.320       .  A
C1114      C1115   1.404       .  A
C1114      H1125   1.082       .  S
C1115      C1124   1.364       .  A
C1115      C1116   1.380       .  A
C1116      C1117   1.404       .  A
C1116      O1122   1.320       .  A
C1117      C1118   1.403       .  A
C1117      H1126   1.082       .  S
C1118      C1121   1.362       .  A
O1119      C1120   1.332       .  A
C1120      C1121   1.392       .  A
C1121      H1127   1.083       .  S
O1122      C1123   1.331       .  A
C1123      C1124   1.393       .  A
C1124      H1128   1.082       .  S
C1129      C1134   1.381       .  A
C1129      C1130   1.403       .  A
C1129      O1135   1.319       .  A
C1130      C1131   1.403       .  A
C1130      H1141   1.082       .  S
C1131      C1140   1.362       .  A
C1131      C1132   1.380       .  A
C1132      C1133   1.403       .  A
C1132      O1138   1.319       .  A
C1133      C1134   1.403       .  A
C1133      H1142   1.082       .  S
C1134      C1137   1.361       .  A
O1135      C1136   1.331       .  A
C1136      C1137   1.391       .  A
C1137      H1143   1.082       .  S
O1138      C1139   1.331       .  A
C1139      C1140   1.391       .  A
C1140      H1144   1.083       .  S
C1145      C1150   1.380       .  A
C1145      C1146   1.404       .  A
C1145      O1151   1.320       .  A
C1146      C1147   1.403       .  A
C1146      H1157   1.082       .  S
C1147      C1156   1.362       .  A
C1147      C1148   1.380       .  A
C1148      C1149   1.405       .  A
C1148      O1154   1.321       .  A
C1149      C1150   1.404       .  A
C1149      H1158   1.082       .  S
C1150      C1153   1.363       .  A
O1151      C1152   1.331       .  A
C1152      C1153   1.393       .  A
C1153      H1159   1.082       .  S
O1154      C1155   1.332       .  A
C1155      C1156   1.392       .  A
C1156      H1160   1.083       .  S
C1161      C1166   1.380       .  A
C1161      C1162   1.403       .  A
C1161      O1167   1.318       .  A
C1162      C1163   1.402       .  A
C1162      H1173   1.082       .  S
C1163      C1172   1.360       .  A
C1163      C1164   1.381       .  A
C1164      C1165   1.403       .  A
C1164      O1170   1.318       .  A
C1165      C1166   1.402       .  A
C1165      H1174   1.082       .  S
C1166      C1169   1.362       .  A
O1167      C1168   1.331       .  A
C1168      C1169   1.392       .  A
C1169      H1175   1.082       .  S
O1170      C1171   1.331       .  A
C1171      C1172   1.391       .  A
C1172      H1176   1.082       .  S
C1177      C1182   1.380       .  A
C1177      C1178   1.406       .  A
C1177      O1183   1.321       .  A
C1178      C1179   1.406       .  A
C1178      H1189   1.082       .  S
C1179      C1188   1.366       .  A
C1179      C1180   1.380       .  A
C1180      C1181   1.404       .  A
C1180      O1186   1.319       .  A
C1181      C1182   1.403       .  A
C1181      H1190   1.082       .  S
C1182      C1185   1.362       .  A
O1183      C1184   1.332       .  A
C1184      C1185   1.392       .  A
C1185      H1191   1.083       .  S
O1186      C1187   1.331       .  A
C1187      C1188   1.393       .  A
C1188      H1192   1.082       .  S
